Test_Network/network_26/Feeder_2/LinesUnq.txt
New Line.LINE172_1 Bus1=172_1 Bus2=172_2 phases=3 Linecode=3c_300_SAC_XC Length=0.49808 Units=m
New Line.LINE172_2 Bus1=172_2 Bus2=172_3 phases=3 Linecode=3c_300_SAC_XC Length=0.069123 Units=m
New Line.LINE172_3 Bus1=172_3 Bus2=172_4 phases=3 Linecode=3c_300_SAC_XC Length=0.069065 Units=m
New Line.LINE172_4 Bus1=172_4 Bus2=172_5 phases=3 Linecode=3c_300_SAC_XC Length=0.069721 Units=m
New Line.LINE172_5 Bus1=172_5 Bus2=172_6 phases=3 Linecode=3c_300_SAC_XC Length=0.068949 Units=m
New Line.LINE172_6 Bus1=172_6 Bus2=172_7 phases=3 Linecode=3c_300_SAC_XC Length=0.068964 Units=m
New Line.LINE172_7 Bus1=172_7 Bus2=172_8 phases=3 Linecode=3c_300_SAC_XC Length=0.069527 Units=m
New Line.LINE172_8 Bus1=172_8 Bus2=172_9 phases=3 Linecode=3c_300_SAC_XC Length=0.069815 Units=m
New Line.LINE172_9 Bus1=172_9 Bus2=172_10 phases=3 Linecode=3c_300_SAC_XC Length=0.068884 Units=m
New Line.LINE172_10 Bus1=172_10 Bus2=172_11 phases=3 Linecode=3c_300_SAC_XC Length=0.99993 Units=m
New Line.LINE172_11 Bus1=172_11 Bus2=172_12 phases=3 Linecode=3c_300_SAC_XC Length=0.88425 Units=m
New Line.LINE172_12 Bus1=172_12 Bus2=172_13 phases=3 Linecode=3c_300_SAC_XC Length=0.22408 Units=m
New Line.LINE172_13 Bus1=172_13 Bus2=172_14 phases=3 Linecode=3c_300_SAC_XC Length=0.22424 Units=m
New Line.LINE172_14 Bus1=172_14 Bus2=172_15 phases=3 Linecode=3c_300_SAC_XC Length=0.22345 Units=m
New Line.LINE172_15 Bus1=172_15 Bus2=172_16 phases=3 Linecode=3c_300_SAC_XC Length=0.22383 Units=m
New Line.LINE172_16 Bus1=172_16 Bus2=172_17 phases=3 Linecode=3c_300_SAC_XC Length=0.2242 Units=m
New Line.LINE172_17 Bus1=172_17 Bus2=172_18 phases=3 Linecode=3c_300_SAC_XC Length=3.6693 Units=m
New Line.LINE172_18 Bus1=172_18 Bus2=172_19 phases=3 Linecode=3c_300_SAC_XC Length=0.22359 Units=m
New Line.LINE172_19 Bus1=172_19 Bus2=172_20 phases=3 Linecode=3c_300_SAC_XC Length=0.22365 Units=m
New Line.LINE172_20 Bus1=172_20 Bus2=172_21 phases=3 Linecode=3c_300_SAC_XC Length=0.22401 Units=m
New Line.LINE172_21 Bus1=172_21 Bus2=172_22 phases=3 Linecode=3c_300_SAC_XC Length=0.22361 Units=m
New Line.LINE172_22 Bus1=172_22 Bus2=172_23 phases=3 Linecode=3c_300_SAC_XC Length=0.22357 Units=m
New Line.LINE172_23 Bus1=172_23 Bus2=172_24 phases=3 Linecode=3c_300_SAC_XC Length=0.22401 Units=m
New Line.LINE172_24 Bus1=172_24 Bus2=172_25 phases=3 Linecode=3c_300_SAC_XC Length=0.57724 Units=m
New Line.LINE172_25 Bus1=172_25 Bus2=172_26 phases=3 Linecode=3c_300_SAC_XC Length=0.21351 Units=m
New Line.LINE172_26 Bus1=172_26 Bus2=172_27 phases=3 Linecode=3c_300_SAC_XC Length=29.9793 Units=m
New Line.LINE172_27 Bus1=172_27 Bus2=172_28 phases=3 Linecode=3c_300_SAC_XC Length=0.01 Units=m
New Line.LINE172_28 Bus1=172_27 Bus2=172_29 phases=3 Linecode=3c_300_SAC_XC Length=0.01 Units=m
New Line.LINE172_29 Bus1=172_27 Bus2=172_30 phases=3 Linecode=25_SAC_XC Length=0.81449 Units=m
New Line.LINE172_30 Bus1=172_30 Bus2=172_31 phases=3 Linecode=3c_300_SAC_XC Length=0.04368 Units=m
New Line.LINE172_31 Bus1=172_31 Bus2=172_32 phases=3 Linecode=3c_300_SAC_XC Length=0.044182 Units=m
New Line.LINE172_32 Bus1=172_32 Bus2=172_33 phases=3 Linecode=3c_300_SAC_XC Length=0.043105 Units=m
New Line.LINE172_33 Bus1=172_33 Bus2=172_34 phases=3 Linecode=3c_300_SAC_XC Length=0.044384 Units=m
New Line.LINE172_34 Bus1=172_34 Bus2=172_35 phases=3 Linecode=3c_300_SAC_XC Length=0.043383 Units=m
New Line.LINE172_35 Bus1=172_35 Bus2=172_36 phases=3 Linecode=3c_300_SAC_XC Length=0.043828 Units=m
New Line.LINE172_36 Bus1=172_36 Bus2=172_37 phases=3 Linecode=3c_300_SAC_XC Length=0.043864 Units=m
New Line.LINE172_37 Bus1=172_37 Bus2=172_38 phases=3 Linecode=3c_300_SAC_XC Length=0.04383 Units=m
New Line.LINE172_38 Bus1=172_38 Bus2=172_39 phases=3 Linecode=3c_300_SAC_XC Length=0.043462 Units=m
New Line.LINE172_39 Bus1=172_39 Bus2=172_40 phases=3 Linecode=3c_300_SAC_XC Length=1.677 Units=m
New Line.LINE172_40 Bus1=172_40 Bus2=172_41 phases=3 Linecode=3c_300_SAC_XC Length=0.90239 Units=m
New Line.LINE172_41 Bus1=172_41 Bus2=172_42 phases=3 Linecode=3c_300_SAC_XC Length=0.26223 Units=m
New Line.LINE172_42 Bus1=172_42 Bus2=172_43 phases=3 Linecode=4c_.25 Length=0.30327 Units=m
New Line.LINE172_43 Bus1=172_42 Bus2=172_44 phases=3 Linecode=4c_.25 Length=14.0534 Units=m
New Line.LINE172_44 Bus1=172_42 Bus2=172_45 phases=3 Linecode=4c_.25 Length=14.0534 Units=m
New Line.LINE172_45 Bus1=172_43 Bus2=172_46 phases=3 Linecode=4c_.25 Length=0.53675 Units=m
New Line.LINE172_46 Bus1=172_43 Bus2=172_47 phases=3 Linecode=3c_300_SAC_XC Length=0.2594 Units=m
New Line.LINE172_47 Bus1=172_44 Bus2=172_48 phases=3 Linecode=4c_.25 Length=0.95625 Units=m
New Line.LINE172_48 Bus1=172_44 Bus2=172_49 phases=3 Linecode=4c_.25 Length=0.30157 Units=m
New Line.LINE172_49 Bus1=172_44 Bus2=172_50 phases=3 Linecode=4c_.25 Length=0.95625 Units=m
New Line.LINE172_50 Bus1=172_46 Bus2=172_51 phases=3 Linecode=4c_.25 Length=0.25494 Units=m
New Line.LINE172_51 Bus1=172_47 Bus2=172_52 phases=3 Linecode=3c_300_SAC_XC Length=0.34112 Units=m
New Line.LINE172_52 Bus1=172_48 Bus2=172_53 phases=3 Linecode=4c_.25 Length=5.2931 Units=m
New Line.LINE172_53 Bus1=172_48 Bus2=172_54 phases=3 Linecode=2c_.04 Length=11.9875 Units=m
New Line.LINE172_54 Bus1=172_48 Bus2=172_55 phases=3 Linecode=4c_.25 Length=5.2931 Units=m
New Line.LINE172_55 Bus1=172_49 Bus2=172_56 phases=3 Linecode=4c_.25 Length=0.11831 Units=m
New Line.LINE172_56 Bus1=172_52 Bus2=172_57 phases=3 Linecode=3c_300_SAC_XC Length=0.13568 Units=m
New Line.LINE172_57 Bus1=172_53 Bus2=172_58 phases=3 Linecode=4c_.25 Length=86.6798 Units=m
New Line.LINE172_58 Bus1=172_53 Bus2=172_59 phases=3 Linecode=4c_.25 Length=86.6798 Units=m
New Line.LINE172_59 Bus1=172_54 Bus2=172_60 phases=3 Linecode=2c_.04 Length=1.2237 Units=m
New Line.LINE172_60 Bus1=172_54 Bus2=172_61 phases=3 Linecode=2c_.04 Length=4.0699 Units=m
New Line.LINE172_61 Bus1=172_54 Bus2=172_62 phases=3 Linecode=2c_.04 Length=1.2237 Units=m
New Line.LINE172_62 Bus1=172_56 Bus2=172_63 phases=3 Linecode=4c_.25 Length=0.2074 Units=m
New Line.LINE172_63 Bus1=172_57 Bus2=172_64 phases=3 Linecode=3c_300_SAC_XC Length=0.35579 Units=m
New Line.LINE172_64 Bus1=172_58 Bus2=172_65 phases=3 Linecode=4c_.25 Length=0.15473 Units=m
New Line.LINE172_65 Bus1=172_58 Bus2=172_66 phases=3 Linecode=4c_.25 Length=0.15473 Units=m
New Line.LINE172_66 Bus1=172_60 Bus2=172_67 phases=3 Linecode=2c_.04 Length=0.12857 Units=m
New Line.LINE172_67 Bus1=172_60 Bus2=172_68 phases=3 Linecode=2c_.04 Length=0.12857 Units=m
New Line.LINE172_68 Bus1=172_61 Bus2=172_69 phases=3 Linecode=2c_.04 Length=0.24159 Units=m
New Line.LINE172_69 Bus1=172_63 Bus2=172_70 phases=3 Linecode=4c_.25 Length=0.43607 Units=m
New Line.LINE172_70 Bus1=172_64 Bus2=172_71 phases=3 Linecode=4c_.25 Length=0.98304 Units=m
New Line.LINE172_71 Bus1=172_64 Bus2=172_72 phases=3 Linecode=4c_.25 Length=13.2992 Units=m
New Line.LINE172_72 Bus1=172_64 Bus2=172_73 phases=3 Linecode=4c_.25 Length=13.2992 Units=m
New Line.LINE172_73 Bus1=172_65 Bus2=172_74 phases=3 Linecode=4c_.25 Length=22.084 Units=m
New Line.LINE172_74 Bus1=172_65 Bus2=172_75 phases=3 Linecode=4c_.25 Length=22.084 Units=m
New Line.LINE172_75 Bus1=172_67 Bus2=172_76 phases=3 Linecode=2c_.04 Length=0.13909 Units=m
New Line.LINE172_76 Bus1=172_67 Bus2=172_77 phases=3 Linecode=2c_.04 Length=0.13909 Units=m
New Line.LINE172_77 Bus1=172_69 Bus2=172_78 phases=3 Linecode=2c_.04 Length=0.18474 Units=m
New Line.LINE172_78 Bus1=172_70 Bus2=172_79 phases=3 Linecode=4c_.25 Length=0.32658 Units=m
New Line.LINE172_79 Bus1=172_72 Bus2=172_80 phases=3 Linecode=4c_.25 Length=6.2952 Units=m
New Line.LINE172_80 Bus1=172_72 Bus2=172_81 phases=3 Linecode=4c_.25 Length=6.2952 Units=m
New Line.LINE172_81 Bus1=172_74 Bus2=172_82 phases=3 Linecode=4c_.25 Length=4.1914 Units=m
New Line.LINE172_82 Bus1=172_74 Bus2=172_83 phases=3 Linecode=4c_.25 Length=4.1914 Units=m
New Line.LINE172_83 Bus1=172_76 Bus2=172_84 phases=3 Linecode=2c_.04 Length=0.13634 Units=m
New Line.LINE172_84 Bus1=172_76 Bus2=172_85 phases=3 Linecode=2c_.04 Length=0.13634 Units=m
New Line.LINE172_85 Bus1=172_78 Bus2=172_86 phases=3 Linecode=2c_.04 Length=0.16461 Units=m
New Line.LINE172_86 Bus1=172_79 Bus2=172_87 phases=3 Linecode=4c_.25 Length=0.49316 Units=m
New Line.LINE172_87 Bus1=172_80 Bus2=172_88 phases=3 Linecode=4c_.25 Length=86.6336 Units=m
New Line.LINE172_88 Bus1=172_80 Bus2=172_89 phases=3 Linecode=4c_.25 Length=86.6336 Units=m
New Line.LINE172_89 Bus1=172_82 Bus2=172_90 phases=3 Linecode=4c_.25 Length=4.5933 Units=m
New Line.LINE172_90 Bus1=172_82 Bus2=172_91 phases=3 Linecode=4c_.25 Length=4.5933 Units=m
New Line.LINE172_91 Bus1=172_84 Bus2=172_92 phases=3 Linecode=2c_.04 Length=0.16293 Units=m
New Line.LINE172_92 Bus1=172_84 Bus2=172_93 phases=3 Linecode=2c_.04 Length=0.16293 Units=m
New Line.LINE172_93 Bus1=172_86 Bus2=172_94 phases=3 Linecode=2c_.04 Length=0.23426 Units=m
New Line.LINE172_94 Bus1=172_87 Bus2=172_95 phases=3 Linecode=4c_.25 Length=0.10576 Units=m
New Line.LINE172_95 Bus1=172_88 Bus2=172_96 phases=3 Linecode=4c_.25 Length=22.1317 Units=m
New Line.LINE172_96 Bus1=172_88 Bus2=172_97 phases=3 Linecode=4c_.25 Length=22.1317 Units=m
New Line.LINE172_97 Bus1=172_90 Bus2=172_98 phases=3 Linecode=4c_.25 Length=8.3605 Units=m
New Line.LINE172_98 Bus1=172_90 Bus2=172_99 phases=3 Linecode=4c_.25 Length=8.3605 Units=m
New Line.LINE172_99 Bus1=172_92 Bus2=172_100 phases=3 Linecode=2c_.04 Length=0.12603 Units=m
New Line.LINE172_100 Bus1=172_92 Bus2=172_101 phases=3 Linecode=2c_.04 Length=0.12603 Units=m
New Line.LINE172_101 Bus1=172_94 Bus2=172_102 phases=3 Linecode=2c_.04 Length=0.86139 Units=m
New Line.LINE172_102 Bus1=172_95 Bus2=172_103 phases=3 Linecode=4c_.25 Length=0.10617 Units=m
New Line.LINE172_103 Bus1=172_96 Bus2=172_104 phases=3 Linecode=4c_.25 Length=4.294 Units=m
New Line.LINE172_104 Bus1=172_96 Bus2=172_105 phases=3 Linecode=4c_.25 Length=4.294 Units=m
New Line.LINE172_105 Bus1=172_98 Bus2=172_106 phases=3 Linecode=4c_.25 Length=1.3061 Units=m
New Line.LINE172_106 Bus1=172_98 Bus2=172_107 phases=3 Linecode=4c_.25 Length=1.3061 Units=m
New Line.LINE172_107 Bus1=172_100 Bus2=172_108 phases=3 Linecode=2c_.04 Length=0.77189 Units=m
New Line.LINE172_108 Bus1=172_100 Bus2=172_109 phases=3 Linecode=2c_.04 Length=0.77189 Units=m
New Line.LINE172_109 Bus1=172_102 Bus2=172_110 phases=3 Linecode=2c_.04 Length=2.7893 Units=m
New Line.LINE172_110 Bus1=172_102 Bus2=172_111 phases=3 Linecode=2c_.04 Length=0.96658 Units=m
New Line.LINE172_111 Bus1=172_103 Bus2=172_112 phases=3 Linecode=4c_.25 Length=0.10692 Units=m
New Line.LINE172_112 Bus1=172_104 Bus2=172_113 phases=3 Linecode=4c_.25 Length=4.5968 Units=m
New Line.LINE172_113 Bus1=172_104 Bus2=172_114 phases=3 Linecode=4c_.25 Length=4.5968 Units=m
New Line.LINE172_114 Bus1=172_106 Bus2=172_115 phases=3 Linecode=4c_.25 Length=2.1271 Units=m
New Line.LINE172_115 Bus1=172_106 Bus2=172_116 phases=3 Linecode=4c_.25 Length=2.1271 Units=m
New Line.LINE172_116 Bus1=172_108 Bus2=172_117 phases=3 Linecode=2c_.04 Length=0.74859 Units=m
New Line.LINE172_117 Bus1=172_108 Bus2=172_118 phases=3 Linecode=2c_.04 Length=6.0342 Units=m
New Line.LINE172_118 Bus1=172_111 Bus2=172_119 phases=3 Linecode=2c_.04 Length=0.21359 Units=m
New Line.LINE172_119 Bus1=172_112 Bus2=172_120 phases=3 Linecode=4c_.25 Length=0.32735 Units=m
New Line.LINE172_120 Bus1=172_113 Bus2=172_121 phases=3 Linecode=4c_.25 Length=8.3582 Units=m
New Line.LINE172_121 Bus1=172_113 Bus2=172_122 phases=3 Linecode=4c_.25 Length=8.3582 Units=m
New Line.LINE172_122 Bus1=172_115 Bus2=172_123 phases=3 Linecode=4c_.25 Length=7.9132 Units=m
New Line.LINE172_123 Bus1=172_115 Bus2=172_124 phases=3 Linecode=4c_.25 Length=7.9132 Units=m
New Line.LINE172_124 Bus1=172_117 Bus2=172_125 phases=3 Linecode=2c_.04 Length=0.12925 Units=m
New Line.LINE172_125 Bus1=172_119 Bus2=172_126 phases=3 Linecode=2c_.04 Length=0.082735 Units=m
New Line.LINE172_126 Bus1=172_121 Bus2=172_127 phases=3 Linecode=4c_.25 Length=1.3105 Units=m
New Line.LINE172_127 Bus1=172_121 Bus2=172_128 phases=3 Linecode=4c_.25 Length=1.3105 Units=m
New Line.LINE172_128 Bus1=172_123 Bus2=172_129 phases=3 Linecode=4c_.25 Length=15.6083 Units=m
New Line.LINE172_129 Bus1=172_123 Bus2=172_130 phases=3 Linecode=4c_.25 Length=15.6083 Units=m
New Line.LINE172_130 Bus1=172_125 Bus2=172_131 phases=3 Linecode=2c_.04 Length=0.16901 Units=m
New Line.LINE172_131 Bus1=172_126 Bus2=172_132 phases=3 Linecode=2c_.04 Length=0.14768 Units=m
New Line.LINE172_132 Bus1=172_127 Bus2=172_133 phases=3 Linecode=4c_.25 Length=2.129 Units=m
New Line.LINE172_133 Bus1=172_127 Bus2=172_134 phases=3 Linecode=4c_.25 Length=2.129 Units=m
New Line.LINE172_134 Bus1=172_129 Bus2=172_135 phases=3 Linecode=4c_.25 Length=12.6322 Units=m
New Line.LINE172_135 Bus1=172_129 Bus2=172_136 phases=3 Linecode=4c_.25 Length=12.6322 Units=m
New Line.LINE172_136 Bus1=172_131 Bus2=172_137 phases=3 Linecode=2c_.04 Length=0.17259 Units=m
New Line.LINE172_137 Bus1=172_132 Bus2=172_138 phases=3 Linecode=2c_.04 Length=0.20044 Units=m
New Line.LINE172_138 Bus1=172_133 Bus2=172_139 phases=3 Linecode=4c_.25 Length=7.91 Units=m
New Line.LINE172_139 Bus1=172_133 Bus2=172_140 phases=3 Linecode=4c_.25 Length=7.91 Units=m
New Line.LINE172_140 Bus1=172_135 Bus2=172_141 phases=3 Linecode=4c_.25 Length=2.571 Units=m
New Line.LINE172_141 Bus1=172_135 Bus2=172_142 phases=3 Linecode=4c_.25 Length=2.571 Units=m
New Line.LINE172_142 Bus1=172_137 Bus2=172_143 phases=3 Linecode=2c_.04 Length=2.3642 Units=m
New Line.LINE172_143 Bus1=172_138 Bus2=172_144 phases=3 Linecode=2c_.04 Length=0.58108 Units=m
New Line.LINE172_144 Bus1=172_139 Bus2=172_145 phases=3 Linecode=4c_.25 Length=15.6074 Units=m
New Line.LINE172_145 Bus1=172_139 Bus2=172_146 phases=3 Linecode=4c_.25 Length=15.6074 Units=m
New Line.LINE172_146 Bus1=172_141 Bus2=172_147 phases=3 Linecode=4c_.25 Length=1.5786 Units=m
New Line.LINE172_147 Bus1=172_141 Bus2=172_148 phases=3 Linecode=4c_.25 Length=1.5786 Units=m
New Line.LINE172_148 Bus1=172_143 Bus2=172_149 phases=3 Linecode=2c_.04 Length=2.7918 Units=m
New Line.LINE172_149 Bus1=172_144 Bus2=172_150 phases=3 Linecode=2c_.04 Length=4.5341 Units=m
New Line.LINE172_150 Bus1=172_145 Bus2=172_151 phases=3 Linecode=4c_.25 Length=12.6309 Units=m
New Line.LINE172_151 Bus1=172_145 Bus2=172_152 phases=3 Linecode=4c_.25 Length=12.6309 Units=m
New Line.LINE172_152 Bus1=172_147 Bus2=172_153 phases=3 Linecode=4c_.25 Length=2.7963 Units=m
New Line.LINE172_153 Bus1=172_147 Bus2=172_154 phases=3 Linecode=4c_.25 Length=2.7963 Units=m
New Line.LINE172_154 Bus1=172_149 Bus2=172_155 phases=3 Linecode=2c_.04 Length=0.17383 Units=m
New Line.LINE172_155 Bus1=172_150 Bus2=172_156 phases=3 Linecode=2c_.04 Length=0.26834 Units=m
New Line.LINE172_156 Bus1=172_151 Bus2=172_157 phases=3 Linecode=4c_.25 Length=2.5701 Units=m
New Line.LINE172_157 Bus1=172_151 Bus2=172_158 phases=3 Linecode=4c_.25 Length=2.5701 Units=m
New Line.LINE172_158 Bus1=172_153 Bus2=172_159 phases=3 Linecode=4c_.25 Length=0.59778 Units=m
New Line.LINE172_159 Bus1=172_153 Bus2=172_160 phases=3 Linecode=4c_.25 Length=0.59778 Units=m
New Line.LINE172_160 Bus1=172_155 Bus2=172_161 phases=3 Linecode=2c_.04 Length=0.13657 Units=m
New Line.LINE172_161 Bus1=172_156 Bus2=172_162 phases=3 Linecode=2c_.04 Length=0.13479 Units=m
New Line.LINE172_162 Bus1=172_157 Bus2=172_163 phases=3 Linecode=4c_.25 Length=1.5763 Units=m
New Line.LINE172_163 Bus1=172_157 Bus2=172_164 phases=3 Linecode=4c_.25 Length=1.5763 Units=m
New Line.LINE172_164 Bus1=172_159 Bus2=172_165 phases=3 Linecode=4c_.25 Length=0.35208 Units=m
New Line.LINE172_165 Bus1=172_159 Bus2=172_166 phases=3 Linecode=4c_.25 Length=0.35208 Units=m
New Line.LINE172_166 Bus1=172_161 Bus2=172_167 phases=3 Linecode=2c_.04 Length=0.14396 Units=m
New Line.LINE172_167 Bus1=172_162 Bus2=172_168 phases=3 Linecode=2c_.04 Length=0.1042 Units=m
New Line.LINE172_168 Bus1=172_163 Bus2=172_169 phases=3 Linecode=4c_.25 Length=2.7963 Units=m
New Line.LINE172_169 Bus1=172_163 Bus2=172_170 phases=3 Linecode=4c_.25 Length=2.7963 Units=m
New Line.LINE172_170 Bus1=172_165 Bus2=172_171 phases=3 Linecode=4c_.25 Length=0.6771 Units=m
New Line.LINE172_171 Bus1=172_165 Bus2=172_172 phases=3 Linecode=4c_.25 Length=0.6771 Units=m
New Line.LINE172_172 Bus1=172_167 Bus2=172_173 phases=3 Linecode=2c_.04 Length=0.1831 Units=m
New Line.LINE172_173 Bus1=172_168 Bus2=172_174 phases=3 Linecode=2c_.04 Length=0.090609 Units=m
New Line.LINE172_174 Bus1=172_169 Bus2=172_175 phases=3 Linecode=4c_.25 Length=0.59685 Units=m
New Line.LINE172_175 Bus1=172_169 Bus2=172_176 phases=3 Linecode=4c_.25 Length=0.59685 Units=m
New Line.LINE172_176 Bus1=172_171 Bus2=172_177 phases=3 Linecode=4c_.25 Length=1.6108 Units=m
New Line.LINE172_177 Bus1=172_171 Bus2=172_178 phases=3 Linecode=4c_.25 Length=1.6108 Units=m
New Line.LINE172_178 Bus1=172_173 Bus2=172_179 phases=3 Linecode=2c_.04 Length=0.68924 Units=m
New Line.LINE172_179 Bus1=172_174 Bus2=172_180 phases=3 Linecode=2c_.04 Length=0.19945 Units=m
New Line.LINE172_180 Bus1=172_175 Bus2=172_181 phases=3 Linecode=4c_.25 Length=0.34447 Units=m
New Line.LINE172_181 Bus1=172_175 Bus2=172_182 phases=3 Linecode=4c_.25 Length=0.34447 Units=m
New Line.LINE172_182 Bus1=172_177 Bus2=172_183 phases=3 Linecode=4c_.25 Length=1.4091 Units=m
New Line.LINE172_183 Bus1=172_177 Bus2=172_184 phases=3 Linecode=4c_.25 Length=1.4091 Units=m
New Line.LINE172_184 Bus1=172_179 Bus2=172_185 phases=3 Linecode=2c_.04 Length=0.87451 Units=m
New Line.LINE172_185 Bus1=172_179 Bus2=172_186 phases=3 Linecode=2c_.04 Length=4.9741 Units=m
New Line.LINE172_186 Bus1=172_180 Bus2=172_187 phases=3 Linecode=2c_.04 Length=0.94768 Units=m
New Line.LINE172_187 Bus1=172_181 Bus2=172_188 phases=3 Linecode=4c_.25 Length=0.67797 Units=m
New Line.LINE172_188 Bus1=172_181 Bus2=172_189 phases=3 Linecode=4c_.25 Length=0.67797 Units=m
New Line.LINE172_189 Bus1=172_183 Bus2=172_190 phases=3 Linecode=4c_.25 Length=2.1248 Units=m
New Line.LINE172_190 Bus1=172_183 Bus2=172_191 phases=3 Linecode=4c_.25 Length=2.1248 Units=m
New Line.LINE172_191 Bus1=172_185 Bus2=172_192 phases=3 Linecode=2c_.04 Length=0.1455 Units=m
New Line.LINE172_192 Bus1=172_187 Bus2=172_193 phases=3 Linecode=2c_.04 Length=3.9626 Units=m
New Line.LINE172_193 Bus1=172_187 Bus2=172_194 phases=3 Linecode=2c_.04 Length=0.94632 Units=m
New Line.LINE172_194 Bus1=172_188 Bus2=172_195 phases=3 Linecode=4c_.25 Length=1.6184 Units=m
New Line.LINE172_195 Bus1=172_188 Bus2=172_196 phases=3 Linecode=4c_.25 Length=1.6184 Units=m
New Line.LINE172_196 Bus1=172_190 Bus2=172_197 phases=3 Linecode=4c_.25 Length=1.4991 Units=m
New Line.LINE172_197 Bus1=172_190 Bus2=172_198 phases=3 Linecode=4c_.25 Length=1.4991 Units=m
New Line.LINE172_198 Bus1=172_192 Bus2=172_199 phases=3 Linecode=2c_.04 Length=0.081394 Units=m
New Line.LINE172_199 Bus1=172_194 Bus2=172_200 phases=3 Linecode=2c_.04 Length=0.17743 Units=m
New Line.LINE172_200 Bus1=172_195 Bus2=172_201 phases=3 Linecode=4c_.25 Length=1.4132 Units=m
New Line.LINE172_201 Bus1=172_195 Bus2=172_202 phases=3 Linecode=4c_.25 Length=1.4132 Units=m
New Line.LINE172_202 Bus1=172_197 Bus2=172_203 phases=3 Linecode=4c_.25 Length=3.7238 Units=m
New Line.LINE172_203 Bus1=172_197 Bus2=172_204 phases=3 Linecode=4c_.25 Length=3.7238 Units=m
New Line.LINE172_204 Bus1=172_199 Bus2=172_205 phases=3 Linecode=2c_.04 Length=0.10359 Units=m
New Line.LINE172_205 Bus1=172_200 Bus2=172_206 phases=3 Linecode=2c_.04 Length=0.10282 Units=m
New Line.LINE172_206 Bus1=172_201 Bus2=172_207 phases=3 Linecode=4c_.25 Length=2.127 Units=m
New Line.LINE172_207 Bus1=172_201 Bus2=172_208 phases=3 Linecode=4c_.25 Length=2.127 Units=m
New Line.LINE172_208 Bus1=172_203 Bus2=172_209 phases=3 Linecode=4c_.25 Length=2.5999 Units=m
New Line.LINE172_209 Bus1=172_203 Bus2=172_210 phases=3 Linecode=4c_.25 Length=2.5999 Units=m
New Line.LINE172_210 Bus1=172_205 Bus2=172_211 phases=3 Linecode=2c_.04 Length=2.3025 Units=m
New Line.LINE172_211 Bus1=172_206 Bus2=172_212 phases=3 Linecode=2c_.04 Length=0.088601 Units=m
New Line.LINE172_212 Bus1=172_207 Bus2=172_213 phases=3 Linecode=4c_.25 Length=1.5004 Units=m
New Line.LINE172_213 Bus1=172_207 Bus2=172_214 phases=3 Linecode=4c_.25 Length=1.5004 Units=m
New Line.LINE172_214 Bus1=172_209 Bus2=172_215 phases=3 Linecode=4c_.25 Length=3.1626 Units=m
New Line.LINE172_215 Bus1=172_209 Bus2=172_216 phases=3 Linecode=4c_.25 Length=3.1626 Units=m
New Line.LINE172_216 Bus1=172_211 Bus2=172_217 phases=3 Linecode=2c_.04 Length=1.0509 Units=m
New Line.LINE172_217 Bus1=172_212 Bus2=172_218 phases=3 Linecode=2c_.04 Length=0.14143 Units=m
New Line.LINE172_218 Bus1=172_213 Bus2=172_219 phases=3 Linecode=4c_.25 Length=3.727 Units=m
New Line.LINE172_219 Bus1=172_213 Bus2=172_220 phases=3 Linecode=4c_.25 Length=3.727 Units=m
New Line.LINE172_220 Bus1=172_215 Bus2=172_221 phases=3 Linecode=4c_.25 Length=1.5186 Units=m
New Line.LINE172_221 Bus1=172_215 Bus2=172_222 phases=3 Linecode=4c_.25 Length=1.5186 Units=m
New Line.LINE172_222 Bus1=172_217 Bus2=172_223 phases=3 Linecode=2c_.04 Length=0.191 Units=m
New Line.LINE172_223 Bus1=172_218 Bus2=172_224 phases=3 Linecode=2c_.04 Length=0.18025 Units=m
New Line.LINE172_224 Bus1=172_219 Bus2=172_225 phases=3 Linecode=4c_.25 Length=2.603 Units=m
New Line.LINE172_225 Bus1=172_219 Bus2=172_226 phases=3 Linecode=4c_.25 Length=2.603 Units=m
New Line.LINE172_226 Bus1=172_221 Bus2=172_227 phases=3 Linecode=4c_.25 Length=1.577 Units=m
New Line.LINE172_227 Bus1=172_221 Bus2=172_228 phases=3 Linecode=4c_.25 Length=1.577 Units=m
New Line.LINE172_228 Bus1=172_223 Bus2=172_229 phases=3 Linecode=2c_.04 Length=0.21967 Units=m
New Line.LINE172_229 Bus1=172_224 Bus2=172_230 phases=3 Linecode=2c_.04 Length=0.41469 Units=m
New Line.LINE172_230 Bus1=172_225 Bus2=172_231 phases=3 Linecode=4c_.25 Length=3.1677 Units=m
New Line.LINE172_231 Bus1=172_225 Bus2=172_232 phases=3 Linecode=4c_.25 Length=3.1677 Units=m
New Line.LINE172_232 Bus1=172_227 Bus2=172_233 phases=3 Linecode=4c_.25 Length=2.0776 Units=m
New Line.LINE172_233 Bus1=172_227 Bus2=172_234 phases=3 Linecode=4c_.25 Length=2.0776 Units=m
New Line.LINE172_234 Bus1=172_229 Bus2=172_235 phases=3 Linecode=2c_.04 Length=0.48352 Units=m
New Line.LINE172_235 Bus1=172_230 Bus2=172_236 phases=3 Linecode=2c_.04 Length=3.2048 Units=m
New Line.LINE172_236 Bus1=172_231 Bus2=172_237 phases=3 Linecode=4c_.25 Length=1.5196 Units=m
New Line.LINE172_237 Bus1=172_231 Bus2=172_238 phases=3 Linecode=4c_.25 Length=1.5196 Units=m
New Line.LINE172_238 Bus1=172_233 Bus2=172_239 phases=3 Linecode=4c_.25 Length=2.201 Units=m
New Line.LINE172_239 Bus1=172_233 Bus2=172_240 phases=3 Linecode=4c_.25 Length=2.201 Units=m
New Line.LINE172_240 Bus1=172_235 Bus2=172_241 phases=3 Linecode=2c_.04 Length=3.7293 Units=m
New Line.LINE172_241 Bus1=172_236 Bus2=172_242 phases=3 Linecode=2c_.04 Length=0.50975 Units=m
New Line.LINE172_242 Bus1=172_237 Bus2=172_243 phases=3 Linecode=4c_.25 Length=1.5874 Units=m
New Line.LINE172_243 Bus1=172_237 Bus2=172_244 phases=3 Linecode=4c_.25 Length=1.5874 Units=m
New Line.LINE172_244 Bus1=172_239 Bus2=172_245 phases=3 Linecode=4c_.25 Length=0.76829 Units=m
New Line.LINE172_245 Bus1=172_239 Bus2=172_246 phases=3 Linecode=4c_.25 Length=0.76829 Units=m
New Line.LINE172_246 Bus1=172_241 Bus2=172_247 phases=3 Linecode=2c_.04 Length=0.23542 Units=m
New Line.LINE172_247 Bus1=172_242 Bus2=172_248 phases=3 Linecode=2c_.04 Length=5.2533 Units=m
New Line.LINE172_248 Bus1=172_243 Bus2=172_249 phases=3 Linecode=4c_.25 Length=2.0936 Units=m
New Line.LINE172_249 Bus1=172_243 Bus2=172_250 phases=3 Linecode=4c_.25 Length=2.0936 Units=m
New Line.LINE172_250 Bus1=172_245 Bus2=172_251 phases=3 Linecode=4c_.25 Length=1.5074 Units=m
New Line.LINE172_251 Bus1=172_245 Bus2=172_252 phases=3 Linecode=4c_.25 Length=1.5074 Units=m
New Line.LINE172_252 Bus1=172_247 Bus2=172_253 phases=3 Linecode=2c_.04 Length=0.21388 Units=m
New Line.LINE172_253 Bus1=172_248 Bus2=172_254 phases=3 Linecode=2c_.04 Length=5.3038 Units=m
New Line.LINE172_254 Bus1=172_249 Bus2=172_255 phases=3 Linecode=4c_.25 Length=2.208 Units=m
New Line.LINE172_255 Bus1=172_249 Bus2=172_256 phases=3 Linecode=4c_.25 Length=2.208 Units=m
New Line.LINE172_256 Bus1=172_251 Bus2=172_257 phases=3 Linecode=4c_.25 Length=1.3261 Units=m
New Line.LINE172_257 Bus1=172_251 Bus2=172_258 phases=3 Linecode=4c_.25 Length=1.3261 Units=m
New Line.LINE172_258 Bus1=172_253 Bus2=172_259 phases=3 Linecode=2c_.04 Length=4.2607 Units=m
New Line.LINE172_259 Bus1=172_255 Bus2=172_260 phases=3 Linecode=4c_.25 Length=0.77828 Units=m
New Line.LINE172_260 Bus1=172_255 Bus2=172_261 phases=3 Linecode=4c_.25 Length=0.77828 Units=m
New Line.LINE172_261 Bus1=172_257 Bus2=172_262 phases=3 Linecode=4c_.25 Length=1.2208 Units=m
New Line.LINE172_262 Bus1=172_257 Bus2=172_263 phases=3 Linecode=4c_.25 Length=1.2208 Units=m
New Line.LINE172_263 Bus1=172_260 Bus2=172_264 phases=3 Linecode=4c_.25 Length=1.5208 Units=m
New Line.LINE172_264 Bus1=172_260 Bus2=172_265 phases=3 Linecode=4c_.25 Length=1.5208 Units=m
New Line.LINE172_265 Bus1=172_262 Bus2=172_266 phases=3 Linecode=4c_.25 Length=1.1836 Units=m
New Line.LINE172_266 Bus1=172_262 Bus2=172_267 phases=3 Linecode=4c_.25 Length=1.1836 Units=m
New Line.LINE172_267 Bus1=172_264 Bus2=172_268 phases=3 Linecode=4c_.25 Length=1.3363 Units=m
New Line.LINE172_268 Bus1=172_264 Bus2=172_269 phases=3 Linecode=4c_.25 Length=1.3363 Units=m
New Line.LINE172_269 Bus1=172_266 Bus2=172_270 phases=3 Linecode=4c_.25 Length=0.88278 Units=m
New Line.LINE172_270 Bus1=172_266 Bus2=172_271 phases=3 Linecode=4c_.25 Length=0.88278 Units=m
New Line.LINE172_271 Bus1=172_268 Bus2=172_272 phases=3 Linecode=4c_.25 Length=1.2316 Units=m
New Line.LINE172_272 Bus1=172_268 Bus2=172_273 phases=3 Linecode=4c_.25 Length=1.2316 Units=m
New Line.LINE172_273 Bus1=172_270 Bus2=172_274 phases=3 Linecode=4c_.25 Length=0.80073 Units=m
New Line.LINE172_274 Bus1=172_270 Bus2=172_275 phases=3 Linecode=4c_.25 Length=0.80073 Units=m
New Line.LINE172_275 Bus1=172_272 Bus2=172_276 phases=3 Linecode=4c_.25 Length=1.1868 Units=m
New Line.LINE172_276 Bus1=172_272 Bus2=172_277 phases=3 Linecode=4c_.25 Length=1.1868 Units=m
New Line.LINE172_277 Bus1=172_274 Bus2=172_278 phases=3 Linecode=4c_.25 Length=0.75108 Units=m
New Line.LINE172_278 Bus1=172_274 Bus2=172_279 phases=3 Linecode=4c_.25 Length=0.75108 Units=m
New Line.LINE172_279 Bus1=172_276 Bus2=172_280 phases=3 Linecode=4c_.25 Length=0.88909 Units=m
New Line.LINE172_280 Bus1=172_276 Bus2=172_281 phases=3 Linecode=4c_.25 Length=0.88909 Units=m
New Line.LINE172_281 Bus1=172_278 Bus2=172_282 phases=3 Linecode=4c_.25 Length=0.73329 Units=m
New Line.LINE172_282 Bus1=172_278 Bus2=172_283 phases=3 Linecode=4c_.25 Length=0.73329 Units=m
New Line.LINE172_283 Bus1=172_280 Bus2=172_284 phases=3 Linecode=4c_.25 Length=0.80704 Units=m
New Line.LINE172_284 Bus1=172_280 Bus2=172_285 phases=3 Linecode=4c_.25 Length=0.80704 Units=m
New Line.LINE172_285 Bus1=172_282 Bus2=172_286 phases=3 Linecode=4c_.25 Length=1.8285 Units=m
New Line.LINE172_286 Bus1=172_282 Bus2=172_287 phases=3 Linecode=4c_.25 Length=1.8285 Units=m
New Line.LINE172_287 Bus1=172_284 Bus2=172_288 phases=3 Linecode=4c_.25 Length=0.75773 Units=m
New Line.LINE172_288 Bus1=172_284 Bus2=172_289 phases=3 Linecode=4c_.25 Length=0.75773 Units=m
New Line.LINE172_289 Bus1=172_286 Bus2=172_290 phases=3 Linecode=4c_.25 Length=1.0957 Units=m
New Line.LINE172_290 Bus1=172_286 Bus2=172_291 phases=3 Linecode=4c_.25 Length=1.0957 Units=m
New Line.LINE172_291 Bus1=172_288 Bus2=172_292 phases=3 Linecode=4c_.25 Length=0.73553 Units=m
New Line.LINE172_292 Bus1=172_288 Bus2=172_293 phases=3 Linecode=4c_.25 Length=0.73553 Units=m
New Line.LINE172_293 Bus1=172_290 Bus2=172_294 phases=3 Linecode=4c_.25 Length=1.8861 Units=m
New Line.LINE172_294 Bus1=172_290 Bus2=172_295 phases=3 Linecode=4c_.25 Length=1.8861 Units=m
New Line.LINE172_295 Bus1=172_292 Bus2=172_296 phases=3 Linecode=4c_.25 Length=1.8429 Units=m
New Line.LINE172_296 Bus1=172_292 Bus2=172_297 phases=3 Linecode=4c_.25 Length=1.8429 Units=m
New Line.LINE172_297 Bus1=172_294 Bus2=172_298 phases=3 Linecode=4c_.25 Length=1.3125 Units=m
New Line.LINE172_298 Bus1=172_294 Bus2=172_299 phases=3 Linecode=4c_.25 Length=1.3125 Units=m
New Line.LINE172_299 Bus1=172_296 Bus2=172_300 phases=3 Linecode=4c_.25 Length=1.1041 Units=m
New Line.LINE172_300 Bus1=172_296 Bus2=172_301 phases=3 Linecode=4c_.25 Length=1.1041 Units=m
New Line.LINE172_301 Bus1=172_298 Bus2=172_302 phases=3 Linecode=4c_.25 Length=0.96258 Units=m
New Line.LINE172_302 Bus1=172_298 Bus2=172_303 phases=3 Linecode=4c_.25 Length=0.96258 Units=m
New Line.LINE172_303 Bus1=172_300 Bus2=172_304 phases=3 Linecode=4c_.25 Length=1.8918 Units=m
New Line.LINE172_304 Bus1=172_300 Bus2=172_305 phases=3 Linecode=4c_.25 Length=1.8918 Units=m
New Line.LINE172_305 Bus1=172_302 Bus2=172_306 phases=3 Linecode=4c_.25 Length=1.2478 Units=m
New Line.LINE172_306 Bus1=172_302 Bus2=172_307 phases=3 Linecode=4c_.25 Length=1.2478 Units=m
New Line.LINE172_307 Bus1=172_304 Bus2=172_308 phases=3 Linecode=4c_.25 Length=1.3196 Units=m
New Line.LINE172_308 Bus1=172_304 Bus2=172_309 phases=3 Linecode=4c_.25 Length=1.3196 Units=m
New Line.LINE172_309 Bus1=172_306 Bus2=172_310 phases=3 Linecode=4c_.25 Length=0.30361 Units=m
New Line.LINE172_310 Bus1=172_306 Bus2=172_311 phases=3 Linecode=4c_.25 Length=0.30361 Units=m
New Line.LINE172_311 Bus1=172_308 Bus2=172_312 phases=3 Linecode=4c_.25 Length=0.96476 Units=m
New Line.LINE172_312 Bus1=172_308 Bus2=172_313 phases=3 Linecode=4c_.25 Length=0.96476 Units=m
New Line.LINE172_313 Bus1=172_310 Bus2=172_314 phases=3 Linecode=4c_.25 Length=0.32822 Units=m
New Line.LINE172_314 Bus1=172_310 Bus2=172_315 phases=3 Linecode=4c_.25 Length=0.32822 Units=m
New Line.LINE172_315 Bus1=172_312 Bus2=172_316 phases=3 Linecode=4c_.25 Length=1.2528 Units=m
New Line.LINE172_316 Bus1=172_312 Bus2=172_317 phases=3 Linecode=4c_.25 Length=1.2528 Units=m
New Line.LINE172_317 Bus1=172_314 Bus2=172_318 phases=3 Linecode=4c_.25 Length=0.30547 Units=m
New Line.LINE172_318 Bus1=172_314 Bus2=172_319 phases=3 Linecode=4c_.25 Length=0.30547 Units=m
New Line.LINE172_319 Bus1=172_316 Bus2=172_320 phases=3 Linecode=4c_.25 Length=0.30585 Units=m
New Line.LINE172_320 Bus1=172_316 Bus2=172_321 phases=3 Linecode=4c_.25 Length=0.30585 Units=m
New Line.LINE172_321 Bus1=172_318 Bus2=172_322 phases=3 Linecode=4c_.25 Length=0.59925 Units=m
New Line.LINE172_322 Bus1=172_318 Bus2=172_323 phases=3 Linecode=4c_.25 Length=0.59925 Units=m
New Line.LINE172_323 Bus1=172_320 Bus2=172_324 phases=3 Linecode=4c_.25 Length=0.31832 Units=m
New Line.LINE172_324 Bus1=172_320 Bus2=172_325 phases=3 Linecode=4c_.25 Length=0.31832 Units=m
New Line.LINE172_325 Bus1=172_322 Bus2=172_326 phases=3 Linecode=4c_.25 Length=0.45707 Units=m
New Line.LINE172_326 Bus1=172_322 Bus2=172_327 phases=3 Linecode=4c_.25 Length=0.45707 Units=m
New Line.LINE172_327 Bus1=172_324 Bus2=172_328 phases=3 Linecode=4c_.25 Length=0.44688 Units=m
New Line.LINE172_328 Bus1=172_324 Bus2=172_329 phases=3 Linecode=4c_.25 Length=0.44688 Units=m
New Line.LINE172_329 Bus1=172_326 Bus2=172_330 phases=3 Linecode=4c_.25 Length=0.16674 Units=m
New Line.LINE172_330 Bus1=172_326 Bus2=172_331 phases=3 Linecode=4c_.25 Length=0.16674 Units=m
New Line.LINE172_331 Bus1=172_328 Bus2=172_332 phases=3 Linecode=4c_.25 Length=0.78427 Units=m
New Line.LINE172_332 Bus1=172_328 Bus2=172_333 phases=3 Linecode=4c_.25 Length=0.78427 Units=m
New Line.LINE172_333 Bus1=172_330 Bus2=172_334 phases=3 Linecode=4c_.25 Length=0.2948 Units=m
New Line.LINE172_334 Bus1=172_330 Bus2=172_335 phases=3 Linecode=4c_.25 Length=0.2948 Units=m
New Line.LINE172_335 Bus1=172_332 Bus2=172_336 phases=3 Linecode=4c_.25 Length=0.34842 Units=m
New Line.LINE172_336 Bus1=172_332 Bus2=172_337 phases=3 Linecode=4c_.25 Length=0.34842 Units=m
New Line.LINE172_337 Bus1=172_334 Bus2=172_338 phases=3 Linecode=4c_.25 Length=0.44123 Units=m
New Line.LINE172_338 Bus1=172_334 Bus2=172_339 phases=3 Linecode=4c_.25 Length=0.44123 Units=m
New Line.LINE172_339 Bus1=172_336 Bus2=172_340 phases=3 Linecode=4c_.25 Length=0.28416 Units=m
New Line.LINE172_340 Bus1=172_336 Bus2=172_341 phases=3 Linecode=4c_.25 Length=0.28416 Units=m
New Line.LINE172_341 Bus1=172_338 Bus2=172_342 phases=3 Linecode=4c_.25 Length=0.28654 Units=m
New Line.LINE172_342 Bus1=172_338 Bus2=172_343 phases=3 Linecode=4c_.25 Length=0.28654 Units=m
New Line.LINE172_343 Bus1=172_340 Bus2=172_344 phases=3 Linecode=4c_.25 Length=0.16086 Units=m
New Line.LINE172_344 Bus1=172_340 Bus2=172_345 phases=3 Linecode=4c_.25 Length=0.16086 Units=m
New Line.LINE172_345 Bus1=172_342 Bus2=172_346 phases=3 Linecode=4c_.25 Length=0.23603 Units=m
New Line.LINE172_346 Bus1=172_342 Bus2=172_347 phases=3 Linecode=4c_.25 Length=0.23603 Units=m
New Line.LINE172_347 Bus1=172_344 Bus2=172_348 phases=3 Linecode=4c_.25 Length=0.17696 Units=m
New Line.LINE172_348 Bus1=172_344 Bus2=172_349 phases=3 Linecode=4c_.25 Length=0.17696 Units=m
New Line.LINE172_349 Bus1=172_346 Bus2=172_350 phases=3 Linecode=4c_.25 Length=0.53199 Units=m
New Line.LINE172_350 Bus1=172_346 Bus2=172_351 phases=3 Linecode=4c_.25 Length=0.53199 Units=m
New Line.LINE172_351 Bus1=172_348 Bus2=172_352 phases=3 Linecode=4c_.25 Length=0.40203 Units=m
New Line.LINE172_352 Bus1=172_348 Bus2=172_353 phases=3 Linecode=4c_.25 Length=0.40203 Units=m
New Line.LINE172_353 Bus1=172_350 Bus2=172_354 phases=3 Linecode=4c_.25 Length=0.32909 Units=m
New Line.LINE172_354 Bus1=172_350 Bus2=172_355 phases=3 Linecode=4c_.25 Length=0.32909 Units=m
New Line.LINE172_355 Bus1=172_352 Bus2=172_356 phases=3 Linecode=4c_.25 Length=0.50592 Units=m
New Line.LINE172_356 Bus1=172_352 Bus2=172_357 phases=3 Linecode=4c_.25 Length=0.50592 Units=m
New Line.LINE172_357 Bus1=172_354 Bus2=172_358 phases=3 Linecode=4c_.25 Length=0.48058 Units=m
New Line.LINE172_358 Bus1=172_354 Bus2=172_359 phases=3 Linecode=4c_.25 Length=0.48058 Units=m
New Line.LINE172_359 Bus1=172_356 Bus2=172_360 phases=3 Linecode=4c_.25 Length=0.29536 Units=m
New Line.LINE172_360 Bus1=172_356 Bus2=172_361 phases=3 Linecode=4c_.25 Length=0.29536 Units=m
New Line.LINE172_361 Bus1=172_358 Bus2=172_362 phases=3 Linecode=4c_.25 Length=0.14262 Units=m
New Line.LINE172_362 Bus1=172_358 Bus2=172_363 phases=3 Linecode=4c_.25 Length=0.14262 Units=m
New Line.LINE172_363 Bus1=172_360 Bus2=172_364 phases=3 Linecode=4c_.25 Length=0.04588 Units=m
New Line.LINE172_364 Bus1=172_360 Bus2=172_365 phases=3 Linecode=4c_.25 Length=0.04588 Units=m
New Line.LINE172_365 Bus1=172_362 Bus2=172_366 phases=3 Linecode=4c_.25 Length=0.3953 Units=m
New Line.LINE172_366 Bus1=172_362 Bus2=172_367 phases=3 Linecode=4c_.25 Length=0.3953 Units=m
New Line.LINE172_367 Bus1=172_364 Bus2=172_368 phases=3 Linecode=4c_.25 Length=0.2335 Units=m
New Line.LINE172_368 Bus1=172_364 Bus2=172_369 phases=3 Linecode=4c_.25 Length=0.2335 Units=m
New Line.LINE172_369 Bus1=172_366 Bus2=172_370 phases=3 Linecode=4c_.25 Length=0.61288 Units=m
New Line.LINE172_370 Bus1=172_366 Bus2=172_371 phases=3 Linecode=4c_.25 Length=0.61288 Units=m
New Line.LINE172_371 Bus1=172_368 Bus2=172_372 phases=3 Linecode=4c_.25 Length=0.21641 Units=m
New Line.LINE172_372 Bus1=172_370 Bus2=172_373 phases=3 Linecode=4c_.25 Length=21.8062 Units=m
New Line.LINE172_373 Bus1=172_370 Bus2=172_374 phases=3 Linecode=4c_.25 Length=21.8062 Units=m
New Line.LINE172_374 Bus1=172_372 Bus2=172_375 phases=3 Linecode=4c_.25 Length=0.033615 Units=m
New Line.LINE172_375 Bus1=172_373 Bus2=172_376 phases=3 Linecode=4c_.25 Length=0.44554 Units=m
New Line.LINE172_376 Bus1=172_373 Bus2=172_377 phases=3 Linecode=4c_.25 Length=0.44554 Units=m
New Line.LINE172_377 Bus1=172_375 Bus2=172_378 phases=3 Linecode=4c_.25 Length=0.54814 Units=m
New Line.LINE172_378 Bus1=172_376 Bus2=172_379 phases=3 Linecode=4c_.25 Length=0.42593 Units=m
New Line.LINE172_379 Bus1=172_376 Bus2=172_380 phases=3 Linecode=4c_.25 Length=0.42593 Units=m
New Line.LINE172_380 Bus1=172_378 Bus2=172_381 phases=3 Linecode=4c_.25 Length=0.51186 Units=m
New Line.LINE172_381 Bus1=172_379 Bus2=172_382 phases=3 Linecode=4c_.25 Length=0.28014 Units=m
New Line.LINE172_382 Bus1=172_379 Bus2=172_383 phases=3 Linecode=4c_.25 Length=0.28014 Units=m
New Line.LINE172_383 Bus1=172_381 Bus2=172_384 phases=3 Linecode=4c_.25 Length=21.8161 Units=m
New Line.LINE172_384 Bus1=172_382 Bus2=172_385 phases=3 Linecode=4c_.25 Length=0.3086 Units=m
New Line.LINE172_385 Bus1=172_382 Bus2=172_386 phases=3 Linecode=4c_.25 Length=0.3086 Units=m
New Line.LINE172_386 Bus1=172_384 Bus2=172_387 phases=3 Linecode=4c_.25 Length=0.52736 Units=m
New Line.LINE172_387 Bus1=172_385 Bus2=172_388 phases=3 Linecode=4c_.25 Length=0.26296 Units=m
New Line.LINE172_388 Bus1=172_387 Bus2=172_389 phases=3 Linecode=4c_.25 Length=0.37125 Units=m
New Line.LINE172_389 Bus1=172_388 Bus2=172_390 phases=3 Linecode=4c_.25 Length=0.43576 Units=m
New Line.LINE172_390 Bus1=172_389 Bus2=172_391 phases=3 Linecode=4c_.25 Length=0.46488 Units=m
New Line.LINE172_391 Bus1=172_390 Bus2=172_392 phases=3 Linecode=3c_95_ASN Length=0.25592 Units=m
New Line.LINE172_392 Bus1=172_390 Bus2=172_393 phases=3 Linecode=4c_.25 Length=1.4082 Units=m
New Line.LINE172_393 Bus1=172_392 Bus2=172_394 phases=3 Linecode=3c_95_ASN Length=2.7871 Units=m
New Line.LINE172_394 Bus1=172_393 Bus2=172_395 phases=3 Linecode=4c_.25 Length=0.41885 Units=m
New Line.LINE172_395 Bus1=172_394 Bus2=172_396 phases=3 Linecode=3c_95_ASN Length=0.37523 Units=m
New Line.LINE172_396 Bus1=172_395 Bus2=172_397 phases=3 Linecode=4c_.25 Length=0.49428 Units=m
New Line.LINE172_397 Bus1=172_396 Bus2=172_398 phases=3 Linecode=3c_95_ASN Length=0.15219 Units=m
New Line.LINE172_398 Bus1=172_397 Bus2=172_399 phases=3 Linecode=4c_.25 Length=2.0851 Units=m
New Line.LINE172_399 Bus1=172_398 Bus2=172_400 phases=3 Linecode=3c_95_ASN Length=0.125 Units=m
New Line.LINE172_400 Bus1=172_399 Bus2=172_401 phases=3 Linecode=2c_.0225 Length=0.40307 Units=m
New Line.LINE172_401 Bus1=172_399 Bus2=172_402 phases=3 Linecode=4c_.25 Length=6.4987 Units=m
New Line.LINE172_402 Bus1=172_400 Bus2=172_403 phases=3 Linecode=3c_95_ASN Length=0.21319 Units=m
New Line.LINE172_403 Bus1=172_401 Bus2=172_404 phases=3 Linecode=2c_.0225 Length=0.21028 Units=m
New Line.LINE172_404 Bus1=172_402 Bus2=172_405 phases=3 Linecode=4c_.25 Length=8.1213 Units=m
New Line.LINE172_405 Bus1=172_403 Bus2=172_406 phases=3 Linecode=3c_95_ASN Length=8.1046 Units=m
New Line.LINE172_406 Bus1=172_404 Bus2=172_407 phases=3 Linecode=2c_.0225 Length=0.193 Units=m
New Line.LINE172_407 Bus1=172_405 Bus2=172_408 phases=3 Linecode=4c_.25 Length=12.3928 Units=m
New Line.LINE172_408 Bus1=172_406 Bus2=172_409 phases=3 Linecode=3c_95_ASN Length=22.7323 Units=m
New Line.LINE172_409 Bus1=172_407 Bus2=172_410 phases=3 Linecode=2c_.0225 Length=0.22714 Units=m
New Line.LINE172_410 Bus1=172_408 Bus2=172_411 phases=3 Linecode=35_SAC_PC Length=0.38752 Units=m
New Line.LINE172_411 Bus1=172_408 Bus2=172_412 phases=3 Linecode=4c_.25 Length=5.7857 Units=m
New Line.LINE172_412 Bus1=172_409 Bus2=172_413 phases=3 Linecode=3c_95_ASN Length=18.1347 Units=m
New Line.LINE172_413 Bus1=172_410 Bus2=172_414 phases=3 Linecode=2c_.0225 Length=0.32647 Units=m
New Line.LINE172_414 Bus1=172_411 Bus2=172_415 phases=3 Linecode=35_SAC_PC Length=0.41903 Units=m
New Line.LINE172_415 Bus1=172_412 Bus2=172_416 phases=3 Linecode=35_SAC_XC Length=0.36077 Units=m
New Line.LINE172_416 Bus1=172_412 Bus2=172_417 phases=3 Linecode=4c_.25 Length=1.5625 Units=m
New Line.LINE172_417 Bus1=172_413 Bus2=172_418 phases=3 Linecode=3c_95_ASN Length=28.2769 Units=m
New Line.LINE172_418 Bus1=172_414 Bus2=172_419 phases=3 Linecode=2c_.0225 Length=0.4438 Units=m
New Line.LINE172_419 Bus1=172_415 Bus2=172_420 phases=3 Linecode=35_SAC_PC Length=1.048 Units=m
New Line.LINE172_420 Bus1=172_416 Bus2=172_421 phases=3 Linecode=35_SAC_XC Length=0.07398 Units=m
New Line.LINE172_421 Bus1=172_417 Bus2=172_422 phases=3 Linecode=4c_.25 Length=15.0207 Units=m
New Line.LINE172_422 Bus1=172_418 Bus2=172_423 phases=3 Linecode=3c_95_ASN Length=1.4138 Units=m
New Line.LINE172_423 Bus1=172_419 Bus2=172_424 phases=3 Linecode=2c_.0225 Length=0.78123 Units=m
New Line.LINE172_424 Bus1=172_420 Bus2=172_425 phases=3 Linecode=35_SAC_PC Length=0.30371 Units=m
New Line.LINE172_425 Bus1=172_421 Bus2=172_426 phases=3 Linecode=35_SAC_XC Length=0.073389 Units=m
New Line.LINE172_426 Bus1=172_422 Bus2=172_427 phases=3 Linecode=4c_.25 Length=8.1044 Units=m
New Line.LINE172_427 Bus1=172_423 Bus2=172_428 phases=3 Linecode=3c_95_ASN Length=0.21304 Units=m
New Line.LINE172_428 Bus1=172_424 Bus2=172_429 phases=3 Linecode=2c_.0225 Length=0.20702 Units=m
New Line.LINE172_429 Bus1=172_426 Bus2=172_430 phases=3 Linecode=35_SAC_XC Length=0.074304 Units=m
New Line.LINE172_430 Bus1=172_427 Bus2=172_431 phases=3 Linecode=4c_.25 Length=6.6972 Units=m
New Line.LINE172_431 Bus1=172_428 Bus2=172_432 phases=3 Linecode=3c_95_ASN Length=0.19393 Units=m
New Line.LINE172_432 Bus1=172_429 Bus2=172_433 phases=3 Linecode=2c_.0225 Length=0.14287 Units=m
New Line.LINE172_433 Bus1=172_430 Bus2=172_434 phases=3 Linecode=35_SAC_XC Length=0.073245 Units=m
New Line.LINE172_434 Bus1=172_431 Bus2=172_435 phases=3 Linecode=4_PSC Length=0.20383 Units=m
New Line.LINE172_435 Bus1=172_431 Bus2=172_436 phases=3 Linecode=4c_.25 Length=0.95658 Units=m
New Line.LINE172_436 Bus1=172_432 Bus2=172_437 phases=3 Linecode=3c_95_ASN Length=0.28729 Units=m
New Line.LINE172_437 Bus1=172_433 Bus2=172_438 phases=3 Linecode=2c_.0225 Length=0.18432 Units=m
New Line.LINE172_438 Bus1=172_434 Bus2=172_439 phases=3 Linecode=35_SAC_XC Length=0.073756 Units=m
New Line.LINE172_439 Bus1=172_435 Bus2=172_440 phases=3 Linecode=4_PSC Length=0.17322 Units=m
New Line.LINE172_440 Bus1=172_436 Bus2=172_441 phases=3 Linecode=4c_.25 Length=4.3282 Units=m
New Line.LINE172_441 Bus1=172_437 Bus2=172_442 phases=3 Linecode=3c_95_ASN Length=0.26225 Units=m
New Line.LINE172_442 Bus1=172_438 Bus2=172_443 phases=3 Linecode=25_PSC Length=0.11568 Units=m
New Line.LINE172_443 Bus1=172_439 Bus2=172_444 phases=3 Linecode=35_SAC_XC Length=0.073574 Units=m
New Line.LINE172_444 Bus1=172_440 Bus2=172_445 phases=3 Linecode=4_PSC Length=0.32452 Units=m
New Line.LINE172_445 Bus1=172_441 Bus2=172_446 phases=3 Linecode=4c_.25 Length=3.6651 Units=m
New Line.LINE172_446 Bus1=172_442 Bus2=172_447 phases=3 Linecode=3c_95_ASN Length=0.23974 Units=m
New Line.LINE172_447 Bus1=172_443 Bus2=172_448 phases=3 Linecode=25_PSC Length=0.12375 Units=m
New Line.LINE172_448 Bus1=172_444 Bus2=172_449 phases=3 Linecode=35_SAC_XC Length=0.073164 Units=m
New Line.LINE172_449 Bus1=172_445 Bus2=172_450 phases=3 Linecode=4_PSC Length=0.14417 Units=m
New Line.LINE172_450 Bus1=172_446 Bus2=172_451 phases=3 Linecode=4c_.25 Length=2.8098 Units=m
New Line.LINE172_451 Bus1=172_447 Bus2=172_452 phases=3 Linecode=3c_95_ASN Length=1.0441 Units=m
New Line.LINE172_452 Bus1=172_448 Bus2=172_453 phases=3 Linecode=25_PSC Length=0.11574 Units=m
New Line.LINE172_453 Bus1=172_449 Bus2=172_454 phases=3 Linecode=35_SAC_XC Length=2.0076 Units=m
New Line.LINE172_454 Bus1=172_450 Bus2=172_455 phases=3 Linecode=4_PSC Length=0.077103 Units=m
New Line.LINE172_455 Bus1=172_451 Bus2=172_456 phases=3 Linecode=4c_.25 Length=0.053475 Units=m
New Line.LINE172_456 Bus1=172_451 Bus2=172_457 phases=3 Linecode=4c_.25 Length=5.0517 Units=m
New Line.LINE172_457 Bus1=172_452 Bus2=172_458 phases=3 Linecode=4c_.06 Length=14.3518 Units=m
New Line.LINE172_458 Bus1=172_453 Bus2=172_459 phases=3 Linecode=25_PSC Length=0.14617 Units=m
New Line.LINE172_459 Bus1=172_454 Bus2=172_460 phases=3 Linecode=35_SAC_XC Length=0.70744 Units=m
New Line.LINE172_460 Bus1=172_455 Bus2=172_461 phases=3 Linecode=4_PSC Length=0.076159 Units=m
New Line.LINE172_461 Bus1=172_456 Bus2=172_462 phases=3 Linecode=4c_.25 Length=0.053337 Units=m
New Line.LINE172_462 Bus1=172_457 Bus2=172_463 phases=3 Linecode=4c_.25 Length=1.7825 Units=m
New Line.LINE172_463 Bus1=172_458 Bus2=172_464 phases=3 Linecode=4c_.06 Length=11.4457 Units=m
New Line.LINE172_464 Bus1=172_459 Bus2=172_465 phases=3 Linecode=25_PSC Length=0.18703 Units=m
New Line.LINE172_465 Bus1=172_461 Bus2=172_466 phases=3 Linecode=4_PSC Length=0.076058 Units=m
New Line.LINE172_466 Bus1=172_462 Bus2=172_467 phases=3 Linecode=4c_.25 Length=0.053151 Units=m
New Line.LINE172_467 Bus1=172_464 Bus2=172_468 phases=3 Linecode=4c_.06 Length=11.4449 Units=m
New Line.LINE172_468 Bus1=172_465 Bus2=172_469 phases=3 Linecode=25_PSC Length=0.23779 Units=m
New Line.LINE172_469 Bus1=172_466 Bus2=172_470 phases=3 Linecode=4_PSC Length=0.076027 Units=m
New Line.LINE172_470 Bus1=172_467 Bus2=172_471 phases=3 Linecode=4c_.25 Length=0.052886 Units=m
New Line.LINE172_471 Bus1=172_468 Bus2=172_472 phases=3 Linecode=4c_.06 Length=8.1878 Units=m
New Line.LINE172_472 Bus1=172_469 Bus2=172_473 phases=3 Linecode=25_PSC Length=0.80226 Units=m
New Line.LINE172_473 Bus1=172_470 Bus2=172_474 phases=3 Linecode=4_PSC Length=0.077104 Units=m
New Line.LINE172_474 Bus1=172_471 Bus2=172_475 phases=3 Linecode=4c_.25 Length=0.053227 Units=m
New Line.LINE172_475 Bus1=172_472 Bus2=172_476 phases=3 Linecode=4c_.06 Length=13.4724 Units=m
New Line.LINE172_476 Bus1=172_473 Bus2=172_477 phases=3 Linecode=25_PSC Length=1.0388 Units=m
New Line.LINE172_477 Bus1=172_474 Bus2=172_478 phases=3 Linecode=4_PSC Length=0.076007 Units=m
New Line.LINE172_478 Bus1=172_475 Bus2=172_479 phases=3 Linecode=4c_.25 Length=0.0536 Units=m
New Line.LINE172_479 Bus1=172_476 Bus2=172_480 phases=3 Linecode=4c_.06 Length=1.1084 Units=m
New Line.LINE172_480 Bus1=172_477 Bus2=172_481 phases=3 Linecode=25_PSC Length=0.11226 Units=m
New Line.LINE172_481 Bus1=172_478 Bus2=172_482 phases=3 Linecode=4_PSC Length=0.076322 Units=m
New Line.LINE172_482 Bus1=172_479 Bus2=172_483 phases=3 Linecode=4c_.25 Length=0.053038 Units=m
New Line.LINE172_483 Bus1=172_480 Bus2=172_484 phases=3 Linecode=4c_.06 Length=0.14284 Units=m
New Line.LINE172_484 Bus1=172_481 Bus2=172_485 phases=3 Linecode=25_PSC Length=0.11209 Units=m
New Line.LINE172_485 Bus1=172_482 Bus2=172_486 phases=3 Linecode=4_PSC Length=0.077279 Units=m
New Line.LINE172_486 Bus1=172_483 Bus2=172_487 phases=3 Linecode=4c_.25 Length=0.053001 Units=m
New Line.LINE172_487 Bus1=172_484 Bus2=172_488 phases=3 Linecode=4c_.06 Length=0.082872 Units=m
New Line.LINE172_488 Bus1=172_485 Bus2=172_489 phases=3 Linecode=25_PSC Length=0.11236 Units=m
New Line.LINE172_489 Bus1=172_486 Bus2=172_490 phases=3 Linecode=4_PSC Length=2.7547 Units=m
New Line.LINE172_490 Bus1=172_487 Bus2=172_491 phases=3 Linecode=4c_.25 Length=0.053851 Units=m
New Line.LINE172_491 Bus1=172_488 Bus2=172_492 phases=3 Linecode=4c_.06 Length=0.079001 Units=m
New Line.LINE172_492 Bus1=172_489 Bus2=172_493 phases=3 Linecode=25_PSC Length=0.11176 Units=m
New Line.LINE172_493 Bus1=172_490 Bus2=172_494 phases=3 Linecode=4_PSC Length=0.072 Units=m
New Line.LINE172_494 Bus1=172_491 Bus2=172_495 phases=3 Linecode=4c_.25 Length=0.052953 Units=m
New Line.LINE172_495 Bus1=172_492 Bus2=172_496 phases=3 Linecode=4c_.06 Length=0.076538 Units=m
New Line.LINE172_496 Bus1=172_493 Bus2=172_497 phases=3 Linecode=25_PSC Length=0.11293 Units=m
New Line.LINE172_497 Bus1=172_494 Bus2=172_498 phases=3 Linecode=4_PSC Length=0.07218 Units=m
New Line.LINE172_498 Bus1=172_495 Bus2=172_499 phases=3 Linecode=4c_.25 Length=0.5587 Units=m
New Line.LINE172_499 Bus1=172_496 Bus2=172_500 phases=3 Linecode=4c_.06 Length=0.14023 Units=m
New Line.LINE172_500 Bus1=172_497 Bus2=172_501 phases=3 Linecode=25_PSC Length=0.11183 Units=m
New Line.LINE172_501 Bus1=172_498 Bus2=172_502 phases=3 Linecode=4_PSC Length=0.071868 Units=m
New Line.LINE172_502 Bus1=172_499 Bus2=172_503 phases=3 Linecode=4c_.25 Length=0.70608 Units=m
New Line.LINE172_503 Bus1=172_500 Bus2=172_504 phases=3 Linecode=4c_.06 Length=2.0528 Units=m
New Line.LINE172_504 Bus1=172_501 Bus2=172_505 phases=3 Linecode=25_PSC Length=0.11245 Units=m
New Line.LINE172_505 Bus1=172_502 Bus2=172_506 phases=3 Linecode=4_PSC Length=0.072201 Units=m
New Line.LINE172_506 Bus1=172_505 Bus2=172_507 phases=3 Linecode=25_PSC Length=0.43214 Units=m
New Line.LINE172_507 Bus1=172_506 Bus2=172_508 phases=3 Linecode=4_PSC Length=0.07225 Units=m
New Line.LINE172_508 Bus1=172_507 Bus2=172_509 phases=3 Linecode=25_PSC Length=0.054037 Units=m
New Line.LINE172_509 Bus1=172_508 Bus2=172_510 phases=3 Linecode=4_PSC Length=0.072621 Units=m
New Line.LINE172_510 Bus1=172_509 Bus2=172_511 phases=3 Linecode=25_PSC Length=0.053236 Units=m
New Line.LINE172_511 Bus1=172_510 Bus2=172_512 phases=3 Linecode=4_PSC Length=0.072009 Units=m
New Line.LINE172_512 Bus1=172_511 Bus2=172_513 phases=3 Linecode=25_PSC Length=0.053759 Units=m
New Line.LINE172_513 Bus1=172_512 Bus2=172_514 phases=3 Linecode=4_PSC Length=0.16361 Units=m
New Line.LINE172_514 Bus1=172_513 Bus2=172_515 phases=3 Linecode=25_PSC Length=0.05346 Units=m
New Line.LINE172_515 Bus1=172_515 Bus2=172_516 phases=3 Linecode=25_PSC Length=0.054037 Units=m
New Line.LINE172_516 Bus1=172_516 Bus2=172_517 phases=3 Linecode=25_PSC Length=0.054342 Units=m
New Line.LINE172_517 Bus1=172_517 Bus2=172_518 phases=3 Linecode=25_PSC Length=0.05331 Units=m
New Line.LINE172_518 Bus1=172_518 Bus2=172_519 phases=3 Linecode=25_PSC Length=0.03265 Units=m
New Line.LINE172_519 Bus1=172_519 Bus2=172_520 phases=3 Linecode=25_PSC Length=0.038833 Units=m
New Line.LINE172_520 Bus1=172_520 Bus2=172_521 phases=3 Linecode=25_PSC Length=0.038897 Units=m
New Line.LINE172_521 Bus1=172_521 Bus2=172_522 phases=3 Linecode=25_PSC Length=0.038833 Units=m
New Line.LINE172_522 Bus1=172_522 Bus2=172_523 phases=3 Linecode=25_PSC Length=0.039 Units=m
New Line.LINE172_523 Bus1=172_523 Bus2=172_524 phases=3 Linecode=25_PSC Length=0.038833 Units=m
New Line.LINE172_524 Bus1=172_524 Bus2=172_525 phases=3 Linecode=25_PSC Length=0.039 Units=m
New Line.LINE172_525 Bus1=172_525 Bus2=172_526 phases=3 Linecode=25_PSC Length=0.038639 Units=m
New Line.LINE172_526 Bus1=172_526 Bus2=172_527 phases=3 Linecode=25_PSC Length=0.038626 Units=m
New Line.LINE172_527 Bus1=172_527 Bus2=172_528 phases=3 Linecode=25_PSC Length=0.34034 Units=m
New Line.LINE172_528 Bus1=172_528 Bus2=172_529 phases=3 Linecode=4_XSC Length=0.79338 Units=m
New Line.LINE172_529 Bus1=172_529 Bus2=172_530 phases=3 Linecode=4_XSC Length=0.40073 Units=m
New Line.LINE172_530 Bus1=172_530 Bus2=172_531 phases=3 Linecode=4_XSC Length=0.40106 Units=m
New Line.LINE172_531 Bus1=172_531 Bus2=172_532 phases=3 Linecode=4_XSC Length=0.40106 Units=m
New Line.LINE172_532 Bus1=172_532 Bus2=172_533 phases=3 Linecode=4_XSC Length=0.4013 Units=m
New Line.LINE172_533 Bus1=172_533 Bus2=172_534 phases=3 Linecode=4_XSC Length=0.40078 Units=m
New Line.LINE172_534 Bus1=172_534 Bus2=172_535 phases=3 Linecode=4_XSC Length=0.40151 Units=m
New Line.LINE172_535 Bus1=172_535 Bus2=172_536 phases=3 Linecode=4_XSC Length=0.40143 Units=m
New Line.LINE172_536 Bus1=172_536 Bus2=172_537 phases=3 Linecode=4_XSC Length=0.40028 Units=m
New Line.LINE172_537 Bus1=172_537 Bus2=172_538 phases=3 Linecode=4_XSC Length=0.40096 Units=m
