Test_Network/network_26/Feeder_4/LinesUnq.txt
New Line.LINE174_1 Bus1=174_1 Bus2=174_2 phases=3 Linecode=3c_300_SAC_XC Length=0.63343 Units=m
New Line.LINE174_2 Bus1=174_2 Bus2=174_3 phases=3 Linecode=3c_300_SAC_XC Length=0.11327 Units=m
New Line.LINE174_3 Bus1=174_3 Bus2=174_4 phases=3 Linecode=3c_300_SAC_XC Length=0.11322 Units=m
New Line.LINE174_4 Bus1=174_4 Bus2=174_5 phases=3 Linecode=3c_300_SAC_XC Length=0.113 Units=m
New Line.LINE174_5 Bus1=174_5 Bus2=174_6 phases=3 Linecode=3c_300_SAC_XC Length=0.11323 Units=m
New Line.LINE174_6 Bus1=174_6 Bus2=174_7 phases=3 Linecode=3c_300_SAC_XC Length=0.11318 Units=m
New Line.LINE174_7 Bus1=174_7 Bus2=174_8 phases=3 Linecode=3c_300_SAC_XC Length=0.11307 Units=m
New Line.LINE174_8 Bus1=174_8 Bus2=174_9 phases=3 Linecode=3c_300_SAC_XC Length=0.1127 Units=m
New Line.LINE174_9 Bus1=174_9 Bus2=174_10 phases=3 Linecode=3c_300_SAC_XC Length=0.11337 Units=m
New Line.LINE174_10 Bus1=174_10 Bus2=174_11 phases=3 Linecode=3c_300_SAC_XC Length=1.775 Units=m
New Line.LINE174_11 Bus1=174_11 Bus2=174_12 phases=3 Linecode=3c_300_SAC_XC Length=1.0447 Units=m
New Line.LINE174_12 Bus1=174_12 Bus2=174_13 phases=3 Linecode=3c_300_SAC_XC Length=0.14625 Units=m
New Line.LINE174_13 Bus1=174_13 Bus2=174_14 phases=3 Linecode=3c_300_SAC_XC Length=0.14463 Units=m
New Line.LINE174_14 Bus1=174_14 Bus2=174_15 phases=3 Linecode=3c_300_SAC_XC Length=0.14534 Units=m
New Line.LINE174_15 Bus1=174_15 Bus2=174_16 phases=3 Linecode=3c_300_SAC_XC Length=0.14649 Units=m
New Line.LINE174_16 Bus1=174_16 Bus2=174_17 phases=3 Linecode=3c_300_SAC_XC Length=0.14578 Units=m
New Line.LINE174_17 Bus1=174_17 Bus2=174_18 phases=3 Linecode=3c_300_SAC_XC Length=3.6542 Units=m
New Line.LINE174_18 Bus1=174_18 Bus2=174_19 phases=3 Linecode=3c_300_SAC_XC Length=0.20492 Units=m
New Line.LINE174_19 Bus1=174_19 Bus2=174_20 phases=3 Linecode=3c_300_SAC_XC Length=0.20395 Units=m
New Line.LINE174_20 Bus1=174_20 Bus2=174_21 phases=3 Linecode=3c_300_SAC_XC Length=0.205 Units=m
New Line.LINE174_21 Bus1=174_21 Bus2=174_22 phases=3 Linecode=3c_300_SAC_XC Length=0.20583 Units=m
New Line.LINE174_22 Bus1=174_22 Bus2=174_23 phases=3 Linecode=3c_300_SAC_XC Length=0.20386 Units=m
New Line.LINE174_23 Bus1=174_23 Bus2=174_24 phases=3 Linecode=3c_300_SAC_XC Length=0.26428 Units=m
New Line.LINE174_24 Bus1=174_24 Bus2=174_25 phases=3 Linecode=3c_300_SAC_XC Length=0.68618 Units=m
New Line.LINE174_25 Bus1=174_25 Bus2=174_26 phases=3 Linecode=3c_300_SAC_XC Length=0.34171 Units=m
New Line.LINE174_26 Bus1=174_26 Bus2=174_27 phases=3 Linecode=3c_300_SAC_XC Length=0.82954 Units=m
New Line.LINE174_27 Bus1=174_27 Bus2=174_28 phases=3 Linecode=3c_300_SAC_XC Length=29.1676 Units=m
New Line.LINE174_28 Bus1=174_28 Bus2=174_29 phases=3 Linecode=3c_300_SAC_XC Length=0.93062 Units=m
New Line.LINE174_29 Bus1=174_29 Bus2=174_30 phases=3 Linecode=3c_300_SAC_XC Length=0.44288 Units=m
New Line.LINE174_30 Bus1=174_30 Bus2=174_31 phases=3 Linecode=3c_300_SAC_XC Length=0.44293 Units=m
New Line.LINE174_31 Bus1=174_31 Bus2=174_32 phases=3 Linecode=3c_300_SAC_XC Length=0.073593 Units=m
New Line.LINE174_32 Bus1=174_32 Bus2=174_33 phases=3 Linecode=3c_300_SAC_XC Length=0.072945 Units=m
New Line.LINE174_33 Bus1=174_33 Bus2=174_34 phases=3 Linecode=3c_300_SAC_XC Length=0.87728 Units=m
New Line.LINE174_34 Bus1=174_34 Bus2=174_35 phases=3 Linecode=4c_.25 Length=1.5185 Units=m
New Line.LINE174_35 Bus1=174_35 Bus2=174_36 phases=3 Linecode=4c_.25 Length=9.173 Units=m
New Line.LINE174_36 Bus1=174_36 Bus2=174_37 phases=3 Linecode=4c_.25 Length=0.23938 Units=m
New Line.LINE174_37 Bus1=174_37 Bus2=174_38 phases=3 Linecode=4c_.25 Length=0.2438 Units=m
New Line.LINE174_38 Bus1=174_38 Bus2=174_39 phases=3 Linecode=4c_.25 Length=0.23471 Units=m
New Line.LINE174_39 Bus1=174_39 Bus2=174_40 phases=3 Linecode=4c_.25 Length=0.24512 Units=m
New Line.LINE174_40 Bus1=174_40 Bus2=174_41 phases=3 Linecode=4c_.25 Length=0.37887 Units=m
New Line.LINE174_41 Bus1=174_41 Bus2=174_42 phases=3 Linecode=4c_.25 Length=0.28956 Units=m
New Line.LINE174_42 Bus1=174_42 Bus2=174_43 phases=3 Linecode=4c_.25 Length=1.0657 Units=m
New Line.LINE174_43 Bus1=174_43 Bus2=174_44 phases=3 Linecode=4_XC Length=0.2365 Units=m
New Line.LINE174_44 Bus1=174_43 Bus2=174_45 phases=3 Linecode=4c_.25 Length=10.0833 Units=m
New Line.LINE174_45 Bus1=174_44 Bus2=174_46 phases=3 Linecode=4_XC Length=0.043139 Units=m
New Line.LINE174_46 Bus1=174_45 Bus2=174_47 phases=3 Linecode=4c_.25 Length=5.4379 Units=m
New Line.LINE174_47 Bus1=174_45 Bus2=174_48 phases=3 Linecode=4_PSC Length=0.17603 Units=m
New Line.LINE174_48 Bus1=174_46 Bus2=174_49 phases=3 Linecode=4_XC Length=0.04272 Units=m
New Line.LINE174_49 Bus1=174_47 Bus2=174_50 phases=3 Linecode=4c_.25 Length=9.9172 Units=m
New Line.LINE174_50 Bus1=174_47 Bus2=174_51 phases=3 Linecode=2c_.04 Length=6.3571 Units=m
New Line.LINE174_51 Bus1=174_48 Bus2=174_52 phases=3 Linecode=4_PSC Length=0.034132 Units=m
New Line.LINE174_52 Bus1=174_49 Bus2=174_53 phases=3 Linecode=4_XC Length=0.043463 Units=m
New Line.LINE174_53 Bus1=174_50 Bus2=174_54 phases=3 Linecode=4c_.25 Length=35.71 Units=m
New Line.LINE174_54 Bus1=174_51 Bus2=174_55 phases=3 Linecode=2c_.04 Length=1.8124 Units=m
New Line.LINE174_55 Bus1=174_51 Bus2=174_56 phases=3 Linecode=2c_.04 Length=2.3511 Units=m
New Line.LINE174_56 Bus1=174_52 Bus2=174_57 phases=3 Linecode=4_PSC Length=0.034929 Units=m
New Line.LINE174_57 Bus1=174_53 Bus2=174_58 phases=3 Linecode=4_XC Length=0.042954 Units=m
New Line.LINE174_58 Bus1=174_54 Bus2=174_59 phases=3 Linecode=2c_.04 Length=6.5276 Units=m
New Line.LINE174_59 Bus1=174_54 Bus2=174_60 phases=3 Linecode=4c_.25 Length=13.0897 Units=m
New Line.LINE174_60 Bus1=174_55 Bus2=174_61 phases=3 Linecode=2c_.04 Length=0.53425 Units=m
New Line.LINE174_61 Bus1=174_56 Bus2=174_62 phases=3 Linecode=2c_.04 Length=0.37934 Units=m
New Line.LINE174_62 Bus1=174_57 Bus2=174_63 phases=3 Linecode=4_PSC Length=0.034928 Units=m
New Line.LINE174_63 Bus1=174_58 Bus2=174_64 phases=3 Linecode=4_XC Length=0.042047 Units=m
New Line.LINE174_64 Bus1=174_59 Bus2=174_65 phases=3 Linecode=2c_.04 Length=3.1076 Units=m
New Line.LINE174_65 Bus1=174_59 Bus2=174_66 phases=3 Linecode=2c_.04 Length=5.9749 Units=m
New Line.LINE174_66 Bus1=174_60 Bus2=174_67 phases=3 Linecode=4c_.25 Length=2.6303 Units=m
New Line.LINE174_67 Bus1=174_61 Bus2=174_68 phases=3 Linecode=2c_.04 Length=0.148 Units=m
New Line.LINE174_68 Bus1=174_62 Bus2=174_69 phases=3 Linecode=2c_.04 Length=0.18381 Units=m
New Line.LINE174_69 Bus1=174_63 Bus2=174_70 phases=3 Linecode=4_PSC Length=0.035228 Units=m
New Line.LINE174_70 Bus1=174_64 Bus2=174_71 phases=3 Linecode=4_XC Length=0.80449 Units=m
New Line.LINE174_71 Bus1=174_65 Bus2=174_72 phases=3 Linecode=2c_.04 Length=0.60596 Units=m
New Line.LINE174_72 Bus1=174_66 Bus2=174_73 phases=3 Linecode=2c_.04 Length=0.26751 Units=m
New Line.LINE174_73 Bus1=174_67 Bus2=174_74 phases=3 Linecode=4c_.25 Length=7.2376 Units=m
New Line.LINE174_74 Bus1=174_67 Bus2=174_75 phases=3 Linecode=2c_.007 Length=1.7718 Units=m
New Line.LINE174_75 Bus1=174_68 Bus2=174_76 phases=3 Linecode=2c_.04 Length=0.14533 Units=m
New Line.LINE174_76 Bus1=174_69 Bus2=174_77 phases=3 Linecode=2c_.04 Length=0.098031 Units=m
New Line.LINE174_77 Bus1=174_70 Bus2=174_78 phases=3 Linecode=4_PSC Length=0.034655 Units=m
New Line.LINE174_78 Bus1=174_72 Bus2=174_79 phases=3 Linecode=2c_.04 Length=0.23604 Units=m
New Line.LINE174_79 Bus1=174_73 Bus2=174_80 phases=3 Linecode=2c_.04 Length=0.14393 Units=m
New Line.LINE174_80 Bus1=174_74 Bus2=174_81 phases=3 Linecode=4c_.25 Length=2.7606 Units=m
New Line.LINE174_81 Bus1=174_75 Bus2=174_82 phases=3 Linecode=2c_.007 Length=0.086977 Units=m
New Line.LINE174_82 Bus1=174_76 Bus2=174_83 phases=3 Linecode=2c_.04 Length=0.12138 Units=m
New Line.LINE174_83 Bus1=174_77 Bus2=174_84 phases=3 Linecode=2c_.04 Length=0.133 Units=m
New Line.LINE174_84 Bus1=174_78 Bus2=174_85 phases=3 Linecode=4_PSC Length=0.034409 Units=m
New Line.LINE174_85 Bus1=174_79 Bus2=174_86 phases=3 Linecode=2c_.04 Length=0.12886 Units=m
New Line.LINE174_86 Bus1=174_80 Bus2=174_87 phases=3 Linecode=2c_.04 Length=0.11177 Units=m
New Line.LINE174_87 Bus1=174_81 Bus2=174_88 phases=3 Linecode=4c_.25 Length=1.0901 Units=m
New Line.LINE174_88 Bus1=174_82 Bus2=174_89 phases=3 Linecode=2c_.007 Length=0.087693 Units=m
New Line.LINE174_89 Bus1=174_83 Bus2=174_90 phases=3 Linecode=2c_.04 Length=0.22409 Units=m
New Line.LINE174_90 Bus1=174_84 Bus2=174_91 phases=3 Linecode=2c_.04 Length=0.13565 Units=m
New Line.LINE174_91 Bus1=174_85 Bus2=174_92 phases=3 Linecode=4_PSC Length=0.034438 Units=m
New Line.LINE174_92 Bus1=174_86 Bus2=174_93 phases=3 Linecode=2c_.04 Length=0.13806 Units=m
New Line.LINE174_93 Bus1=174_87 Bus2=174_94 phases=3 Linecode=2c_.04 Length=0.094341 Units=m
New Line.LINE174_94 Bus1=174_88 Bus2=174_95 phases=3 Linecode=4c_.25 Length=1.2926 Units=m
New Line.LINE174_95 Bus1=174_89 Bus2=174_96 phases=3 Linecode=2c_.007 Length=0.087093 Units=m
New Line.LINE174_96 Bus1=174_90 Bus2=174_97 phases=3 Linecode=2c_.04 Length=0.99153 Units=m
New Line.LINE174_97 Bus1=174_91 Bus2=174_98 phases=3 Linecode=2c_.04 Length=0.86096 Units=m
New Line.LINE174_98 Bus1=174_92 Bus2=174_99 phases=3 Linecode=4_PSC Length=0.6145 Units=m
New Line.LINE174_99 Bus1=174_93 Bus2=174_100 phases=3 Linecode=2c_.04 Length=0.17533 Units=m
New Line.LINE174_100 Bus1=174_94 Bus2=174_101 phases=3 Linecode=2c_.04 Length=0.15023 Units=m
New Line.LINE174_101 Bus1=174_95 Bus2=174_102 phases=3 Linecode=4c_.25 Length=1.2525 Units=m
New Line.LINE174_102 Bus1=174_96 Bus2=174_103 phases=3 Linecode=2c_.007 Length=0.087097 Units=m
New Line.LINE174_103 Bus1=174_97 Bus2=174_104 phases=3 Linecode=2c_.04 Length=3.5564 Units=m
New Line.LINE174_104 Bus1=174_97 Bus2=174_105 phases=3 Linecode=2c_.04 Length=0.95389 Units=m
New Line.LINE174_105 Bus1=174_98 Bus2=174_106 phases=3 Linecode=2c_.04 Length=4.3132 Units=m
New Line.LINE174_106 Bus1=174_98 Bus2=174_107 phases=3 Linecode=2c_.04 Length=0.79743 Units=m
New Line.LINE174_107 Bus1=174_100 Bus2=174_108 phases=3 Linecode=2c_.04 Length=0.61635 Units=m
New Line.LINE174_108 Bus1=174_101 Bus2=174_109 phases=3 Linecode=2c_.04 Length=0.80544 Units=m
New Line.LINE174_109 Bus1=174_102 Bus2=174_110 phases=3 Linecode=4c_.25 Length=1.2515 Units=m
New Line.LINE174_110 Bus1=174_103 Bus2=174_111 phases=3 Linecode=2c_.007 Length=0.086925 Units=m
New Line.LINE174_111 Bus1=174_105 Bus2=174_112 phases=3 Linecode=2c_.04 Length=0.13559 Units=m
New Line.LINE174_112 Bus1=174_107 Bus2=174_113 phases=3 Linecode=2c_.04 Length=0.21434 Units=m
New Line.LINE174_113 Bus1=174_108 Bus2=174_114 phases=3 Linecode=2c_.04 Length=4.3549 Units=m
New Line.LINE174_114 Bus1=174_108 Bus2=174_115 phases=3 Linecode=2c_.04 Length=0.6754 Units=m
New Line.LINE174_115 Bus1=174_109 Bus2=174_116 phases=3 Linecode=2c_.04 Length=3.113 Units=m
New Line.LINE174_116 Bus1=174_109 Bus2=174_117 phases=3 Linecode=2c_.04 Length=0.74938 Units=m
New Line.LINE174_117 Bus1=174_110 Bus2=174_118 phases=3 Linecode=4c_.25 Length=1.004 Units=m
New Line.LINE174_118 Bus1=174_111 Bus2=174_119 phases=3 Linecode=2c_.007 Length=0.087664 Units=m
New Line.LINE174_119 Bus1=174_112 Bus2=174_120 phases=3 Linecode=2c_.04 Length=0.14 Units=m
New Line.LINE174_120 Bus1=174_113 Bus2=174_121 phases=3 Linecode=2c_.04 Length=0.15726 Units=m
New Line.LINE174_121 Bus1=174_115 Bus2=174_122 phases=3 Linecode=2c_.04 Length=0.17605 Units=m
New Line.LINE174_122 Bus1=174_117 Bus2=174_123 phases=3 Linecode=2c_.04 Length=0.18181 Units=m
New Line.LINE174_123 Bus1=174_118 Bus2=174_124 phases=3 Linecode=4c_.25 Length=1.1189 Units=m
New Line.LINE174_124 Bus1=174_119 Bus2=174_125 phases=3 Linecode=2c_.007 Length=0.087046 Units=m
New Line.LINE174_125 Bus1=174_120 Bus2=174_126 phases=3 Linecode=2c_.04 Length=0.1187 Units=m
New Line.LINE174_126 Bus1=174_121 Bus2=174_127 phases=3 Linecode=2c_.04 Length=0.15789 Units=m
New Line.LINE174_127 Bus1=174_122 Bus2=174_128 phases=3 Linecode=2c_.04 Length=0.10929 Units=m
New Line.LINE174_128 Bus1=174_123 Bus2=174_129 phases=3 Linecode=2c_.04 Length=0.12371 Units=m
New Line.LINE174_129 Bus1=174_124 Bus2=174_130 phases=3 Linecode=4c_.25 Length=1.1863 Units=m
New Line.LINE174_130 Bus1=174_125 Bus2=174_131 phases=3 Linecode=2c_.007 Length=0.087006 Units=m
New Line.LINE174_131 Bus1=174_126 Bus2=174_132 phases=3 Linecode=2c_.04 Length=0.1172 Units=m
New Line.LINE174_132 Bus1=174_127 Bus2=174_133 phases=3 Linecode=2c_.04 Length=0.155 Units=m
New Line.LINE174_133 Bus1=174_128 Bus2=174_134 phases=3 Linecode=2c_.04 Length=0.13525 Units=m
New Line.LINE174_134 Bus1=174_129 Bus2=174_135 phases=3 Linecode=2c_.04 Length=0.084314 Units=m
New Line.LINE174_135 Bus1=174_130 Bus2=174_136 phases=3 Linecode=4c_.25 Length=1.3739 Units=m
New Line.LINE174_136 Bus1=174_131 Bus2=174_137 phases=3 Linecode=2c_.007 Length=0.087658 Units=m
New Line.LINE174_137 Bus1=174_132 Bus2=174_138 phases=3 Linecode=2c_.04 Length=0.27995 Units=m
New Line.LINE174_138 Bus1=174_133 Bus2=174_139 phases=3 Linecode=2c_.04 Length=0.52642 Units=m
New Line.LINE174_139 Bus1=174_134 Bus2=174_140 phases=3 Linecode=2c_.04 Length=0.1486 Units=m
New Line.LINE174_140 Bus1=174_135 Bus2=174_141 phases=3 Linecode=2c_.04 Length=0.14717 Units=m
New Line.LINE174_141 Bus1=174_136 Bus2=174_142 phases=3 Linecode=4c_.25 Length=1.1538 Units=m
New Line.LINE174_142 Bus1=174_137 Bus2=174_143 phases=3 Linecode=2c_.007 Length=0.59647 Units=m
New Line.LINE174_143 Bus1=174_138 Bus2=174_144 phases=3 Linecode=2c_.04 Length=5.0418 Units=m
New Line.LINE174_144 Bus1=174_139 Bus2=174_145 phases=3 Linecode=2c_.04 Length=4.3607 Units=m
New Line.LINE174_145 Bus1=174_140 Bus2=174_146 phases=3 Linecode=2c_.04 Length=0.21597 Units=m
New Line.LINE174_146 Bus1=174_141 Bus2=174_147 phases=3 Linecode=2c_.04 Length=0.24497 Units=m
New Line.LINE174_147 Bus1=174_142 Bus2=174_148 phases=3 Linecode=4c_.25 Length=1.5692 Units=m
New Line.LINE174_148 Bus1=174_143 Bus2=174_149 phases=3 Linecode=4_XSC Length=0.23715 Units=m
New Line.LINE174_149 Bus1=174_144 Bus2=174_150 phases=3 Linecode=2c_.04 Length=0.51936 Units=m
New Line.LINE174_150 Bus1=174_145 Bus2=174_151 phases=3 Linecode=2c_.04 Length=0.34355 Units=m
New Line.LINE174_151 Bus1=174_146 Bus2=174_152 phases=3 Linecode=2c_.04 Length=3.9631 Units=m
New Line.LINE174_152 Bus1=174_147 Bus2=174_153 phases=3 Linecode=2c_.04 Length=0.71218 Units=m
New Line.LINE174_153 Bus1=174_148 Bus2=174_154 phases=3 Linecode=4c_.25 Length=2.2618 Units=m
New Line.LINE174_154 Bus1=174_149 Bus2=174_155 phases=3 Linecode=4_XSC Length=0.075286 Units=m
New Line.LINE174_155 Bus1=174_150 Bus2=174_156 phases=3 Linecode=2c_.04 Length=0.14 Units=m
New Line.LINE174_156 Bus1=174_151 Bus2=174_157 phases=3 Linecode=2c_.04 Length=0.13152 Units=m
New Line.LINE174_157 Bus1=174_152 Bus2=174_158 phases=3 Linecode=2c_.04 Length=0.16308 Units=m
New Line.LINE174_158 Bus1=174_153 Bus2=174_159 phases=3 Linecode=2c_.04 Length=4.4411 Units=m
New Line.LINE174_159 Bus1=174_154 Bus2=174_160 phases=3 Linecode=4c_16 Length=0.17289 Units=m
New Line.LINE174_160 Bus1=174_154 Bus2=174_161 phases=3 Linecode=4c_.25 Length=4.4572 Units=m
New Line.LINE174_161 Bus1=174_155 Bus2=174_162 phases=3 Linecode=4_XSC Length=0.075426 Units=m
New Line.LINE174_162 Bus1=174_156 Bus2=174_163 phases=3 Linecode=2c_.04 Length=0.1608 Units=m
New Line.LINE174_163 Bus1=174_157 Bus2=174_164 phases=3 Linecode=2c_.04 Length=0.1114 Units=m
New Line.LINE174_164 Bus1=174_158 Bus2=174_165 phases=3 Linecode=2c_.04 Length=1.1441 Units=m
New Line.LINE174_165 Bus1=174_159 Bus2=174_166 phases=3 Linecode=2c_.04 Length=0.29043 Units=m
New Line.LINE174_166 Bus1=174_160 Bus2=174_167 phases=3 Linecode=4c_16 Length=0.21593 Units=m
New Line.LINE174_167 Bus1=174_161 Bus2=174_168 phases=3 Linecode=2c_.007 Length=0.29085 Units=m
New Line.LINE174_168 Bus1=174_161 Bus2=174_169 phases=3 Linecode=4c_.25 Length=17.1625 Units=m
New Line.LINE174_169 Bus1=174_162 Bus2=174_170 phases=3 Linecode=4_XSC Length=0.075167 Units=m
New Line.LINE174_170 Bus1=174_163 Bus2=174_171 phases=3 Linecode=2c_.04 Length=0.19096 Units=m
New Line.LINE174_171 Bus1=174_164 Bus2=174_172 phases=3 Linecode=2c_.04 Length=0.12519 Units=m
New Line.LINE174_172 Bus1=174_165 Bus2=174_173 phases=3 Linecode=2c_.04 Length=3.8168 Units=m
New Line.LINE174_173 Bus1=174_166 Bus2=174_174 phases=3 Linecode=2c_.04 Length=0.094869 Units=m
New Line.LINE174_174 Bus1=174_167 Bus2=174_175 phases=3 Linecode=4c_16 Length=0.38216 Units=m
New Line.LINE174_175 Bus1=174_168 Bus2=174_176 phases=3 Linecode=2c_.007 Length=0.86145 Units=m
New Line.LINE174_176 Bus1=174_169 Bus2=174_177 phases=3 Linecode=4c_.25 Length=21.3722 Units=m
New Line.LINE174_177 Bus1=174_170 Bus2=174_178 phases=3 Linecode=4_XSC Length=0.075432 Units=m
New Line.LINE174_178 Bus1=174_171 Bus2=174_179 phases=3 Linecode=2c_.04 Length=0.27381 Units=m
New Line.LINE174_179 Bus1=174_172 Bus2=174_180 phases=3 Linecode=2c_.04 Length=0.13424 Units=m
New Line.LINE174_180 Bus1=174_174 Bus2=174_181 phases=3 Linecode=2c_.04 Length=0.083935 Units=m
New Line.LINE174_181 Bus1=174_175 Bus2=174_182 phases=3 Linecode=4c_16 Length=0.22192 Units=m
New Line.LINE174_182 Bus1=174_176 Bus2=174_183 phases=3 Linecode=2c_.007 Length=0.092849 Units=m
New Line.LINE174_183 Bus1=174_177 Bus2=174_184 phases=3 Linecode=2c_.04 Length=5.8566 Units=m
New Line.LINE174_184 Bus1=174_177 Bus2=174_185 phases=3 Linecode=4c_.25 Length=16.3819 Units=m
New Line.LINE174_185 Bus1=174_178 Bus2=174_186 phases=3 Linecode=4_XSC Length=0.075152 Units=m
New Line.LINE174_186 Bus1=174_179 Bus2=174_187 phases=3 Linecode=2c_.04 Length=0.76996 Units=m
New Line.LINE174_187 Bus1=174_180 Bus2=174_188 phases=3 Linecode=2c_.04 Length=0.69498 Units=m
New Line.LINE174_188 Bus1=174_181 Bus2=174_189 phases=3 Linecode=2c_.04 Length=0.086 Units=m
New Line.LINE174_189 Bus1=174_183 Bus2=174_190 phases=3 Linecode=2c_.007 Length=0.077006 Units=m
New Line.LINE174_190 Bus1=174_184 Bus2=174_191 phases=3 Linecode=2c_.04 Length=0.50759 Units=m
New Line.LINE174_191 Bus1=174_185 Bus2=174_192 phases=3 Linecode=4c_.25 Length=13.6759 Units=m
New Line.LINE174_192 Bus1=174_186 Bus2=174_193 phases=3 Linecode=4_XSC Length=0.076027 Units=m
New Line.LINE174_193 Bus1=174_187 Bus2=174_194 phases=3 Linecode=2c_.04 Length=2.7077 Units=m
New Line.LINE174_194 Bus1=174_187 Bus2=174_195 phases=3 Linecode=2c_.04 Length=0.80794 Units=m
New Line.LINE174_195 Bus1=174_188 Bus2=174_196 phases=3 Linecode=2c_.04 Length=4.1456 Units=m
New Line.LINE174_196 Bus1=174_188 Bus2=174_197 phases=3 Linecode=2c_.04 Length=0.60286 Units=m
New Line.LINE174_197 Bus1=174_189 Bus2=174_198 phases=3 Linecode=2c_.04 Length=0.16737 Units=m
New Line.LINE174_198 Bus1=174_190 Bus2=174_199 phases=3 Linecode=2c_.007 Length=0.2014 Units=m
New Line.LINE174_199 Bus1=174_191 Bus2=174_200 phases=3 Linecode=2c_.04 Length=5.0178 Units=m
New Line.LINE174_200 Bus1=174_191 Bus2=174_201 phases=3 Linecode=2c_.04 Length=0.35362 Units=m
...
