Test_Network/network_26/Feeder_5/LinesUnq.txt
New Line.LINE175_1 Bus1=175_1 Bus2=175_2 phases=3 Linecode=3c_300_SAC_XC Length=0.79437 Units=m
New Line.LINE175_2 Bus1=175_2 Bus2=175_3 phases=3 Linecode=3c_300_SAC_XC Length=0.123 Units=m
New Line.LINE175_3 Bus1=175_3 Bus2=175_4 phases=3 Linecode=3c_300_SAC_XC Length=0.12315 Units=m
New Line.LINE175_4 Bus1=175_4 Bus2=175_5 phases=3 Linecode=3c_300_SAC_XC Length=0.12332 Units=m
New Line.LINE175_5 Bus1=175_5 Bus2=175_6 phases=3 Linecode=3c_300_SAC_XC Length=0.12238 Units=m
New Line.LINE175_6 Bus1=175_6 Bus2=175_7 phases=3 Linecode=3c_300_SAC_XC Length=0.12355 Units=m
New Line.LINE175_7 Bus1=175_7 Bus2=175_8 phases=3 Linecode=3c_300_SAC_XC Length=0.12215 Units=m
New Line.LINE175_8 Bus1=175_8 Bus2=175_9 phases=3 Linecode=3c_300_SAC_XC Length=0.12355 Units=m
New Line.LINE175_9 Bus1=175_9 Bus2=175_10 phases=3 Linecode=3c_300_SAC_XC Length=0.12355 Units=m
New Line.LINE175_10 Bus1=175_10 Bus2=175_11 phases=3 Linecode=3c_300_SAC_XC Length=2.189 Units=m
New Line.LINE175_11 Bus1=175_11 Bus2=175_12 phases=3 Linecode=3c_300_SAC_XC Length=1.0177 Units=m
New Line.LINE175_12 Bus1=175_12 Bus2=175_13 phases=3 Linecode=3c_300_SAC_XC Length=0.093038 Units=m
New Line.LINE175_13 Bus1=175_13 Bus2=175_14 phases=3 Linecode=3c_300_SAC_XC Length=0.092655 Units=m
New Line.LINE175_14 Bus1=175_14 Bus2=175_15 phases=3 Linecode=3c_300_SAC_XC Length=0.091935 Units=m
New Line.LINE175_15 Bus1=175_15 Bus2=175_16 phases=3 Linecode=3c_300_SAC_XC Length=0.093006 Units=m
New Line.LINE175_16 Bus1=175_16 Bus2=175_17 phases=3 Linecode=3c_300_SAC_XC Length=0.092573 Units=m
New Line.LINE175_17 Bus1=175_17 Bus2=175_18 phases=3 Linecode=3c_300_SAC_XC Length=0.093301 Units=m
New Line.LINE175_18 Bus1=175_18 Bus2=175_19 phases=3 Linecode=3c_300_SAC_XC Length=3.652 Units=m
New Line.LINE175_19 Bus1=175_19 Bus2=175_20 phases=3 Linecode=3c_300_SAC_XC Length=0.23559 Units=m
New Line.LINE175_20 Bus1=175_20 Bus2=175_21 phases=3 Linecode=3c_300_SAC_XC Length=0.23526 Units=m
New Line.LINE175_21 Bus1=175_21 Bus2=175_22 phases=3 Linecode=3c_300_SAC_XC Length=0.235 Units=m
New Line.LINE175_22 Bus1=175_22 Bus2=175_23 phases=3 Linecode=3c_300_SAC_XC Length=0.23483 Units=m
New Line.LINE175_23 Bus1=175_23 Bus2=175_24 phases=3 Linecode=3c_300_SAC_XC Length=0.23548 Units=m
New Line.LINE175_24 Bus1=175_24 Bus2=175_25 phases=3 Linecode=3c_300_SAC_XC Length=0.36405 Units=m
New Line.LINE175_25 Bus1=175_25 Bus2=175_26 phases=3 Linecode=3c_300_SAC_XC Length=1.0081 Units=m
New Line.LINE175_26 Bus1=175_26 Bus2=175_27 phases=3 Linecode=3c_300_SAC_XC Length=0.1367 Units=m
New Line.LINE175_27 Bus1=175_27 Bus2=175_28 phases=3 Linecode=3c_300_SAC_XC Length=29.8356 Units=m
New Line.LINE175_28 Bus1=175_28 Bus2=175_29 phases=3 Linecode=3c_300_SAC_XC Length=0.74403 Units=m
New Line.LINE175_29 Bus1=175_29 Bus2=175_30 phases=3 Linecode=3c_300_SAC_XC Length=0.042953 Units=m
New Line.LINE175_30 Bus1=175_30 Bus2=175_31 phases=3 Linecode=3c_300_SAC_XC Length=0.041617 Units=m
New Line.LINE175_31 Bus1=175_31 Bus2=175_32 phases=3 Linecode=3c_300_SAC_XC Length=0.043139 Units=m
New Line.LINE175_32 Bus1=175_32 Bus2=175_33 phases=3 Linecode=3c_300_SAC_XC Length=0.04134 Units=m
New Line.LINE175_33 Bus1=175_33 Bus2=175_34 phases=3 Linecode=3c_300_SAC_XC Length=0.043081 Units=m
New Line.LINE175_34 Bus1=175_34 Bus2=175_35 phases=3 Linecode=3c_300_SAC_XC Length=0.041593 Units=m
New Line.LINE175_35 Bus1=175_35 Bus2=175_36 phases=3 Linecode=3c_300_SAC_XC Length=0.042013 Units=m
New Line.LINE175_36 Bus1=175_36 Bus2=175_37 phases=3 Linecode=3c_300_SAC_XC Length=0.042753 Units=m
New Line.LINE175_37 Bus1=175_37 Bus2=175_38 phases=3 Linecode=3c_300_SAC_XC Length=3.1574 Units=m
New Line.LINE175_38 Bus1=175_38 Bus2=175_39 phases=3 Linecode=4c_.25 Length=1.2503 Units=m
New Line.LINE175_39 Bus1=175_39 Bus2=175_40 phases=3 Linecode=3c_300_SAC_XC Length=0.91234 Units=m
New Line.LINE175_40 Bus1=175_39 Bus2=175_41 phases=3 Linecode=4c_.25 Length=10.8805 Units=m
New Line.LINE175_41 Bus1=175_40 Bus2=175_42 phases=3 Linecode=3c_300_SAC_XC Length=0.13809 Units=m
New Line.LINE175_42 Bus1=175_41 Bus2=175_43 phases=3 Linecode=2c_.04 Length=12.0689 Units=m
New Line.LINE175_43 Bus1=175_41 Bus2=175_44 phases=3 Linecode=4c_.25 Length=11.4005 Units=m
New Line.LINE175_44 Bus1=175_42 Bus2=175_45 phases=3 Linecode=3c_300_SAC_XC Length=0.25294 Units=m
New Line.LINE175_45 Bus1=175_43 Bus2=175_46 phases=3 Linecode=2c_.04 Length=0.76324 Units=m
New Line.LINE175_46 Bus1=175_44 Bus2=175_47 phases=3 Linecode=4c_.25 Length=18.9738 Units=m
New Line.LINE175_47 Bus1=175_45 Bus2=175_48 phases=3 Linecode=4c_.25 Length=0.39015 Units=m
New Line.LINE175_48 Bus1=175_45 Bus2=175_49 phases=3 Linecode=4c_.25 Length=5.8542 Units=m
New Line.LINE175_49 Bus1=175_46 Bus2=175_50 phases=3 Linecode=2c_.04 Length=0.20064 Units=m
New Line.LINE175_50 Bus1=175_47 Bus2=175_51 phases=3 Linecode=2c_.04 Length=12.2012 Units=m
New Line.LINE175_51 Bus1=175_47 Bus2=175_52 phases=3 Linecode=4c_.25 Length=2.3413 Units=m
...